

        *** GPGPU-Sim Simulator Version 4.2.0  [build gpgpu-sim_git-commit-fc80690a07466c1876745320413ad46fcb9c3275_modified_18.0] ***


GPGPU-Sim: Configuration options:

-save_embedded_ptx                      0 # saves ptx files embedded in binary as <n>.ptx
-keep                                   0 # keep intermediate files created by GPGPU-Sim when interfacing with external programs
-gpgpu_ptx_save_converted_ptxplus                    0 # Saved converted ptxplus to a file
-gpgpu_occupancy_sm_number                   75 # The SM number to pass to ptxas when getting register usage for computing GPU occupancy. This parameter is required in the config.
-ptx_opcode_latency_int      4,13,4,5,145,32 # Opcode latencies for integers <ADD,MAX,MUL,MAD,DIV,SHFL>Default 1,1,19,25,145,32
-ptx_opcode_latency_fp          4,13,4,5,39 # Opcode latencies for single precision floating points <ADD,MAX,MUL,MAD,DIV>Default 1,1,1,1,30
-ptx_opcode_latency_dp         8,19,8,8,330 # Opcode latencies for double precision floating points <ADD,MAX,MUL,MAD,DIV>Default 8,8,8,8,335
-ptx_opcode_latency_sfu                  100 # Opcode latencies for SFU instructionsDefault 8
-ptx_opcode_latency_tesnor                   64 # Opcode latencies for Tensor instructionsDefault 64
-ptx_opcode_initiation_int          2,2,2,2,8,4 # Opcode initiation intervals for integers <ADD,MAX,MUL,MAD,DIV,SHFL>Default 1,1,4,4,32,4
-ptx_opcode_initiation_fp            2,2,2,2,4 # Opcode initiation intervals for single precision floating points <ADD,MAX,MUL,MAD,DIV>Default 1,1,1,1,5
-ptx_opcode_initiation_dp          4,4,4,4,130 # Opcode initiation intervals for double precision floating points <ADD,MAX,MUL,MAD,DIV>Default 8,8,8,8,130
-ptx_opcode_initiation_sfu                    8 # Opcode initiation intervals for sfu instructionsDefault 8
-ptx_opcode_initiation_tensor                   64 # Opcode initiation intervals for tensor instructionsDefault 64
-cdp_latency         7200,8000,100,12000,1600 # CDP API latency <cudaStreamCreateWithFlags, cudaGetParameterBufferV2_init_perWarp, cudaGetParameterBufferV2_perKernel, cudaLaunchDeviceV2_init_perWarp, cudaLaunchDevicV2_perKernel>Default 7200,8000,100,12000,1600
-network_mode                           2 # Interconnection network mode
-inter_config_file                   mesh # Interconnection network config file
-icnt_in_buffer_limit                  512 # in_buffer_limit
-icnt_out_buffer_limit                  512 # out_buffer_limit
-icnt_subnets                           2 # subnets
-icnt_arbiter_algo                      1 # arbiter_algo
-icnt_verbose                           0 # inct_verbose
-icnt_grant_cycles                      1 # grant_cycles
-gpgpu_ptx_use_cuobjdump                    1 # Use cuobjdump to extract ptx and sass from binaries
-gpgpu_experimental_lib_support                    0 # Try to extract code from cuda libraries [Broken because of unknown cudaGetExportTable]
-checkpoint_option                      0 #  checkpointing flag (0 = no checkpoint)
-checkpoint_kernel                      1 #  checkpointing during execution of which kernel (1- 1st kernel)
-checkpoint_CTA                         0 #  checkpointing after # of CTA (< less than total CTA)
-resume_option                          0 #  resume flag (0 = no resume)
-resume_kernel                          0 #  Resume from which kernel (1= 1st kernel)
-resume_CTA                             0 #  resume from which CTA 
-checkpoint_CTA_t                       0 #  resume from which CTA 
-checkpoint_insn_Y                      0 #  resume from which CTA 
-gpgpu_ptx_convert_to_ptxplus                    0 # Convert SASS (native ISA) to ptxplus and run ptxplus
-gpgpu_ptx_force_max_capability                   75 # Force maximum compute capability
-gpgpu_ptx_inst_debug_to_file                    0 # Dump executed instructions' debug information to file
-gpgpu_ptx_inst_debug_file       inst_debug.txt # Executed instructions' debug output file
-gpgpu_ptx_inst_debug_thread_uid                    1 # Thread UID for executed instructions' debug output
-gpgpu_simd_model                       1 # 1 = post-dominator
-gpgpu_shader_core_pipeline              1024:32 # shader core pipeline config, i.e., {<nthread>:<warpsize>}
-gpgpu_tex_cache:l1  N:4:128:256,L:R:m:N:L,T:512:8,128:2 # per-shader L1 texture cache  (READ-ONLY) config  {<nsets>:<bsize>:<assoc>,<rep>:<wr>:<alloc>:<wr_alloc>,<mshr>:<N>:<merge>,<mq>:<rf>}
-gpgpu_const_cache:l1 N:128:64:8,L:R:f:N:L,S:2:64,4 # per-shader L1 constant memory cache  (READ-ONLY) config  {<nsets>:<bsize>:<assoc>,<rep>:<wr>:<alloc>:<wr_alloc>,<mshr>:<N>:<merge>,<mq>} 
-gpgpu_cache:il1     N:64:128:16,L:R:f:N:L,S:2:48,4 # shader L1 instruction cache config  {<nsets>:<bsize>:<assoc>,<rep>:<wr>:<alloc>:<wr_alloc>,<mshr>:<N>:<merge>,<mq>} 
-gpgpu_cache:dl1     S:1:128:512,L:L:s:N:L,A:256:8,16:0,32 # per-shader L1 data cache config  {<nsets>:<bsize>:<assoc>,<rep>:<wr>:<alloc>:<wr_alloc>,<mshr>:<N>:<merge>,<mq> | none}
-gpgpu_l1_banks                         4 # The number of L1 cache banks
-gpgpu_l1_banks_byte_interleaving                   32 # l1 banks byte interleaving granularity
-gpgpu_l1_banks_hashing_function                    0 # l1 banks hashing function
-gpgpu_l1_latency                      20 # L1 Hit Latency
-gpgpu_smem_latency                    20 # smem Latency
-gpgpu_cache:dl1PrefL1                 none # per-shader L1 data cache config  {<nsets>:<bsize>:<assoc>,<rep>:<wr>:<alloc>:<wr_alloc>,<mshr>:<N>:<merge>,<mq> | none}
-gpgpu_cache:dl1PrefShared                 none # per-shader L1 data cache config  {<nsets>:<bsize>:<assoc>,<rep>:<wr>:<alloc>:<wr_alloc>,<mshr>:<N>:<merge>,<mq> | none}
-gpgpu_gmem_skip_L1D                    0 # global memory access skip L1D cache (implements -Xptxas -dlcm=cg, default=no skip)
-gpgpu_perfect_mem                      0 # enable perfect memory mode (no cache miss)
-gpgpu_perfect_mem_data                    0 # no wait for data on scoreboard
-gpgpu_write_sched_order                    0 # write order in which warps were executed in file
-gpgpu_follow_defined_sched_order                    0 # follow sched order written in file
-gpgpu_print_stall_data                    0 # Print verbose stall data per cycle
-gpgpu_print_cout_statements                    0 # Print verbose stall data per cycle
-gpgpu_sched_all_warps                    0 # All schedulers see all warps
-gpgpu_reply_buffer                     0 # Replay instructions which could not be executed later
-gpgpu_reply_buffer_seperate_mem_comp                    0 # Replay instructions which could not be executed later
-n_regfile_gating_group                    4 # group of lanes that should be read/written together)
-gpgpu_clock_gated_reg_file                    0 # enable clock gated reg file for power calculations
-gpgpu_clock_gated_lanes                    1 # enable clock gated lanes for power calculations
-gpgpu_shader_registers                65536 # Number of registers per shader core. Limits number of concurrent CTAs. (default 8192)
-gpgpu_registers_per_block                65536 # Maximum number of registers per CTA. (default 8192)
-gpgpu_ignore_resources_limitation                    0 # gpgpu_ignore_resources_limitation (default 0)
-gpgpu_shader_cta                      32 # Maximum number of concurrent CTAs in shader (default 8)
-gpgpu_num_cta_barriers                   16 # Maximum number of named barriers per CTA (default 16)
-gpgpu_n_clusters                      34 # number of processing clusters
-gpgpu_n_cores_per_cluster                    1 # number of simd cores per cluster
-gpgpu_n_cluster_ejection_buffer_size                   32 # number of packets in ejection buffer
-gpgpu_n_ldst_response_buffer_size                    2 # number of response packets in ld/st unit ejection buffer
-gpgpu_shmem_per_block                65536 # Size of shared memory per thread block or CTA (default 48kB)
-gpgpu_shmem_size                   65536 # Size of shared memory per shader core (default 16kB)
-gpgpu_adaptive_cache_config                    0 # adaptive_cache_config
-gpgpu_shmem_sizeDefault                65536 # Size of shared memory per shader core (default 16kB)
-gpgpu_shmem_size_PrefL1                16384 # Size of shared memory per shader core (default 16kB)
-gpgpu_shmem_size_PrefShared                16384 # Size of shared memory per shader core (default 16kB)
-gpgpu_shmem_num_banks                   32 # Number of banks in the shared memory in each shader core (default 16)
-gpgpu_shmem_limited_broadcast                    0 # Limit shared memory to do one broadcast per cycle (default on)
-gpgpu_shmem_warp_parts                    1 # Number of portions a warp is divided into for shared memory bank conflict check 
-gpgpu_mem_unit_ports                    1 # The number of memory transactions allowed per core cycle
-gpgpu_shmem_warp_parts                    1 # Number of portions a warp is divided into for shared memory bank conflict check 
-gpgpu_warpdistro_shader                   -1 # Specify which shader core to collect the warp size distribution from
-gpgpu_warp_issue_shader                    0 # Specify which shader core to collect the warp issue distribution from
-gpgpu_local_mem_map                    1 # Mapping from local memory space address to simulated GPU physical address space (default = enabled)
-gpgpu_num_reg_banks                   16 # Number of register banks (default = 8)
-gpgpu_reg_bank_use_warp_id                    0 # Use warp ID in mapping registers to banks (default = off)
-gpgpu_sub_core_model                    1 # Sub Core Volta/Pascal model (default = off)
-gpgpu_enable_specialized_operand_collector                    0 # enable_specialized_operand_collector
-gpgpu_operand_collector_num_units_sp                    4 # number of collector units (default = 4)
-gpgpu_operand_collector_num_units_dp                    0 # number of collector units (default = 0)
-gpgpu_operand_collector_num_units_sfu                    4 # number of collector units (default = 4)
-gpgpu_operand_collector_num_units_int                    0 # number of collector units (default = 0)
-gpgpu_operand_collector_num_units_tensor_core                    4 # number of collector units (default = 4)
-gpgpu_operand_collector_num_units_mem                    2 # number of collector units (default = 2)
-gpgpu_operand_collector_num_units_gen                    8 # number of collector units (default = 0)
-gpgpu_operand_collector_num_in_ports_sp                    1 # number of collector unit in ports (default = 1)
-gpgpu_operand_collector_num_in_ports_dp                    0 # number of collector unit in ports (default = 0)
-gpgpu_operand_collector_num_in_ports_sfu                    1 # number of collector unit in ports (default = 1)
-gpgpu_operand_collector_num_in_ports_int                    0 # number of collector unit in ports (default = 0)
-gpgpu_operand_collector_num_in_ports_tensor_core                    1 # number of collector unit in ports (default = 1)
-gpgpu_operand_collector_num_in_ports_mem                    1 # number of collector unit in ports (default = 1)
-gpgpu_operand_collector_num_in_ports_gen                    8 # number of collector unit in ports (default = 0)
-gpgpu_operand_collector_num_out_ports_sp                    1 # number of collector unit in ports (default = 1)
-gpgpu_operand_collector_num_out_ports_dp                    0 # number of collector unit in ports (default = 0)
-gpgpu_operand_collector_num_out_ports_sfu                    1 # number of collector unit in ports (default = 1)
-gpgpu_operand_collector_num_out_ports_int                    0 # number of collector unit in ports (default = 0)
-gpgpu_operand_collector_num_out_ports_tensor_core                    1 # number of collector unit in ports (default = 1)
-gpgpu_operand_collector_num_out_ports_mem                    1 # number of collector unit in ports (default = 1)
-gpgpu_operand_collector_num_out_ports_gen                    8 # number of collector unit in ports (default = 0)
-gpgpu_coalesce_arch                   75 # Coalescing arch (GT200 = 13, Fermi = 20)
-gpgpu_num_sched_per_core                    4 # Number of warp schedulers per core
-gpgpu_max_insn_issue_per_warp                    1 # Max number of instructions that can be issued per warp in one cycle by scheduler (either 1 or 2)
-gpgpu_dual_issue_diff_exec_units                    1 # should dual issue use two different execution unit resources (Default = 1)
-gpgpu_simt_core_sim_order                    1 # Select the simulation order of cores in a cluster (0=Fix, 1=Round-Robin)
-gpgpu_pipeline_widths 4,0,4,4,4,4,0,4,4,4,8,4,4 # Pipeline widths ID_OC_SP,ID_OC_DP,ID_OC_INT,ID_OC_SFU,ID_OC_MEM,OC_EX_SP,OC_EX_DP,OC_EX_INT,OC_EX_SFU,OC_EX_MEM,EX_WB,ID_OC_TENSOR_CORE,OC_EX_TENSOR_CORE
-gpgpu_tensor_core_avail                    1 # Tensor Core Available (default=0)
-gpgpu_num_sp_units                     4 # Number of SP units (default=1)
-gpgpu_num_dp_units                     0 # Number of DP units (default=0)
-gpgpu_num_int_units                    4 # Number of INT units (default=0)
-gpgpu_num_sfu_units                    4 # Number of SF units (default=1)
-gpgpu_num_tensor_core_units                    4 # Number of tensor_core units (default=1)
-gpgpu_num_mem_units                    1 # Number if ldst units (default=1) WARNING: not hooked up to anything
-gpgpu_scheduler                      gto # Scheduler configuration: < lrr | gto | two_level_active > If two_level_active:<num_active_warps>:<inner_prioritization>:<outer_prioritization>For complete list of prioritization values see shader.h enum scheduler_prioritization_typeDefault: gto
-gpgpu_concurrent_kernel_sm                    0 # Support concurrent kernels on a SM (default = disabled)
-gpgpu_perfect_inst_const_cache                    0 # perfect inst and const cache mode, so all inst and const hits in the cache(default = disabled)
-gpgpu_perfect_control                    0 # perfect control so that all control hazardsare resolved immediately
-gpgpu_pending_write_ignore                    0 # Ignore Pending Writes
-gpgpu_ignore_synchronization                    0 # Ignores synchronization (CAREFUL: may break execution)
-gpgpu_inst_fetch_throughput                    4 # the number of fetched intruction per warp each cycle
-gpgpu_reg_file_port_throughput                    2 # the number ports of the register file
-specialized_unit_1         1,4,4,4,4,BRA # specialized unit config {<enabled>,<num_units>:<latency>:<initiation>,<ID_OC_SPEC>:<OC_EX_SPEC>,<NAME>}
-specialized_unit_2       1,1,200,4,4,TEX # specialized unit config {<enabled>,<num_units>:<latency>:<initiation>,<ID_OC_SPEC>:<OC_EX_SPEC>,<NAME>}
-specialized_unit_3      1,4,8,4,4,TENSOR # specialized unit config {<enabled>,<num_units>:<latency>:<initiation>,<ID_OC_SPEC>:<OC_EX_SPEC>,<NAME>}
-specialized_unit_4         1,4,4,4,4,UDP # specialized unit config {<enabled>,<num_units>:<latency>:<initiation>,<ID_OC_SPEC>:<OC_EX_SPEC>,<NAME>}
-specialized_unit_5         0,4,4,4,4,BRA # specialized unit config {<enabled>,<num_units>:<latency>:<initiation>,<ID_OC_SPEC>:<OC_EX_SPEC>,<NAME>}
-specialized_unit_6         0,4,4,4,4,BRA # specialized unit config {<enabled>,<num_units>:<latency>:<initiation>,<ID_OC_SPEC>:<OC_EX_SPEC>,<NAME>}
-specialized_unit_7         0,4,4,4,4,BRA # specialized unit config {<enabled>,<num_units>:<latency>:<initiation>,<ID_OC_SPEC>:<OC_EX_SPEC>,<NAME>}
-specialized_unit_8         0,4,4,4,4,BRA # specialized unit config {<enabled>,<num_units>:<latency>:<initiation>,<ID_OC_SPEC>:<OC_EX_SPEC>,<NAME>}
-gpgpu_perf_sim_memcpy                    1 # Fill the L2 cache on memcpy
-gpgpu_simple_dram_model                    0 # simple_dram_model with fixed latency and BW
-gpgpu_dram_scheduler                    1 # 0 = fifo, 1 = FR-FCFS (defaul)
-gpgpu_dram_partition_queues          64:64:64:64 # i2$:$2d:d2$:$2i
-l2_ideal                               0 # Use a ideal L2 cache that always hit
-gpgpu_cache:dl2     S:64:128:16,L:B:m:L:P,A:192:4,32:0,32 # unified banked L2 data cache config  {<nsets>:<bsize>:<assoc>,<rep>:<wr>:<alloc>:<wr_alloc>,<mshr>:<N>:<merge>,<mq>}
-gpgpu_cache:dl2_texture_only                    0 # L2 cache used for texture only
-gpgpu_n_mem                           16 # number of memory modules (e.g. memory controllers) in gpu
-gpgpu_n_sub_partition_per_mchannel                    2 # number of memory subpartition in each memory module
-gpgpu_n_mem_per_ctrlr                    1 # number of memory chips per memory controller
-gpgpu_memlatency_stat                   14 # track and display latency statistics 0x2 enables MC, 0x4 enables queue logs
-gpgpu_frfcfs_dram_sched_queue_size                   64 # 0 = unlimited (default); # entries per chip
-gpgpu_dram_return_queue_size                  192 # 0 = unlimited (default); # entries per chip
-gpgpu_dram_buswidth                    2 # default = 4 bytes (8 bytes per cycle at DDR)
-gpgpu_dram_burst_length                   16 # Burst length of each DRAM request (default = 4 data bus cycle)
-dram_data_command_freq_ratio                    4 # Frequency ratio between DRAM data bus and command bus (default = 2 times, i.e. DDR)
-gpgpu_dram_timing_opt nbk=16:CCD=4:RRD=10:RCD=20:RAS=50:RP=20:RC=62: CL=20:WL=8:CDLR=9:WR=20:nbkgrp=4:CCDL=4:RTPL=4 # DRAM timing parameters = {nbk:tCCD:tRRD:tRCD:tRAS:tRP:tRC:CL:WL:tCDLR:tWR:nbkgrp:tCCDL:tRTPL}
-gpgpu_l2_rop_latency                  160 # ROP queue latency (default 85)
-dram_latency                         100 # DRAM latency (default 30)
-dram_dual_bus_interface                    0 # dual_bus_interface (default = 0) 
-dram_bnk_indexing_policy                    0 # dram_bnk_indexing_policy (0 = normal indexing, 1 = Xoring with the higher bits) (Default = 0)
-dram_bnkgrp_indexing_policy                    1 # dram_bnkgrp_indexing_policy (0 = take higher bits, 1 = take lower bits) (Default = 0)
-dram_seperate_write_queue_enable                    0 # Seperate_Write_Queue_Enable
-dram_write_queue_size             32:28:16 # Write_Queue_Size
-dram_elimnate_rw_turnaround                    0 # elimnate_rw_turnaround i.e set tWTR and tRTW = 0
-icnt_flit_size                        40 # icnt_flit_size
-gpgpu_mem_addr_mapping dramid@8;00000000.00000000.00000000.00000000.0000RRRR.RRRRRRRR.RBBBCCCC.BCCSSSSS # mapping memory address to dram model {dramid@<start bit>;<memory address map>}
-gpgpu_mem_addr_test                    0 # run sweep test to check address mapping for aliased address
-gpgpu_mem_address_mask                    1 # 0 = old addressing mask, 1 = new addressing mask, 2 = new add. mask + flipped bank sel and chip sel bits
-gpgpu_memory_partition_indexing                    0 # 0 = no indexing, 1 = bitwise xoring, 2 = IPoly, 3 = custom indexing
-accelwattch_xml_file accelwattch_ptx_sim.xml # AccelWattch XML file
-power_simulation_enabled                    1 # Turn on power simulator (1=On, 0=Off)
-power_per_cycle_dump                    0 # Dump detailed power output each cycle
-hw_perf_file_name            hw_perf.csv # Hardware Performance Statistics file
-hw_perf_bench_name                       # Kernel Name in Hardware Performance Statistics file
-power_simulation_mode                    0 # Switch performance counter input for power simulation (0=Sim, 1=HW, 2=HW-Sim Hybrid)
-dvfs_enabled                           0 # Turn on DVFS for power model
-aggregate_power_stats                    0 # Accumulate power across all kernels
-accelwattch_hybrid_perfsim_L1_RH                    0 # Get L1 Read Hits for Accelwattch-Hybrid from Accel-Sim
-accelwattch_hybrid_perfsim_L1_RM                    0 # Get L1 Read Misses for Accelwattch-Hybrid from Accel-Sim
-accelwattch_hybrid_perfsim_L1_WH                    0 # Get L1 Write Hits for Accelwattch-Hybrid from Accel-Sim
-accelwattch_hybrid_perfsim_L1_WM                    0 # Get L1 Write Misses for Accelwattch-Hybrid from Accel-Sim
-accelwattch_hybrid_perfsim_L2_RH                    0 # Get L2 Read Hits for Accelwattch-Hybrid from Accel-Sim
-accelwattch_hybrid_perfsim_L2_RM                    0 # Get L2 Read Misses for Accelwattch-Hybrid from Accel-Sim
-accelwattch_hybrid_perfsim_L2_WH                    0 # Get L2 Write Hits for Accelwattch-Hybrid from Accel-Sim
-accelwattch_hybrid_perfsim_L2_WM                    0 # Get L2 Write Misses for Accelwattch-Hybrid from Accel-Sim
-accelwattch_hybrid_perfsim_CC_ACC                    0 # Get Constant Cache Acesses for Accelwattch-Hybrid from Accel-Sim
-accelwattch_hybrid_perfsim_SHARED_ACC                    0 # Get Shared Memory Acesses for Accelwattch-Hybrid from Accel-Sim
-accelwattch_hybrid_perfsim_DRAM_RD                    0 # Get DRAM Reads for Accelwattch-Hybrid from Accel-Sim
-accelwattch_hybrid_perfsim_DRAM_WR                    0 # Get DRAM Writes for Accelwattch-Hybrid from Accel-Sim
-accelwattch_hybrid_perfsim_NOC                    0 # Get Interconnect Acesses for Accelwattch-Hybrid from Accel-Sim
-accelwattch_hybrid_perfsim_PIPE_DUTY                    0 # Get Pipeline Duty Cycle Acesses for Accelwattch-Hybrid from Accel-Sim
-accelwattch_hybrid_perfsim_NUM_SM_IDLE                    0 # Get Number of Idle SMs for Accelwattch-Hybrid from Accel-Sim
-accelwattch_hybrid_perfsim_CYCLES                    0 # Get Executed Cycles for Accelwattch-Hybrid from Accel-Sim
-accelwattch_hybrid_perfsim_VOLTAGE                    0 # Get Chip Voltage for Accelwattch-Hybrid from Accel-Sim
-power_trace_enabled                    0 # produce a file for the power trace (1=On, 0=Off)
-power_trace_zlevel                     6 # Compression level of the power trace output log (0=no comp, 9=highest)
-steady_power_levels_enabled                    0 # produce a file for the steady power levels (1=On, 0=Off)
-steady_state_definition                  8:4 # allowed deviation:number of samples
-gpgpu_max_cycle                        0 # terminates gpu simulation early (0 = no limit)
-gpgpu_max_insn                         0 # terminates gpu simulation early (0 = no limit)
-gpgpu_max_cta                          0 # terminates gpu simulation early (0 = no limit)
-gpgpu_max_completed_cta                    0 # terminates gpu simulation early (0 = no limit)
-gpgpu_runtime_stat                   500 # display runtime statistics such as dram utilization {<freq>:<flag>}
-liveness_message_freq                    1 # Minimum number of seconds between simulation liveness messages (0 = always print)
-gpgpu_compute_capability_major                    7 # Major compute capability version number
-gpgpu_compute_capability_minor                    5 # Minor compute capability version number
-gpgpu_flush_l1_cache                    1 # Flush L1 cache at the end of each kernel call
-gpgpu_flush_l2_cache                    0 # Flush L2 cache at the end of each kernel call
-gpgpu_deadlock_detect                    1 # Stop the simulation at deadlock (1=on (default), 0=off)
-gpgpu_ptx_instruction_classification                    0 # if enabled will classify ptx instruction types per kernel (Max 255 kernels now)
-gpgpu_ptx_sim_mode                     0 # Select between Performance (default) or Functional simulation (1)
-gpgpu_clock_domains 1905.0:1905.0:1905.0:3500.0 # Clock Domain Frequencies in MhZ {<Core Clock>:<ICNT Clock>:<L2 Clock>:<DRAM Clock>}
-gpgpu_max_concurrent_kernel                    8 # maximum kernels that can run concurrently on GPU
-gpgpu_cflog_interval                    0 # Interval between each snapshot in control flow logger
-visualizer_enabled                     0 # Turn on visualizer output (1=On, 0=Off)
-visualizer_outputfile                 NULL # Specifies the output log file for visualizer
-visualizer_zlevel                      6 # Compression level of the visualizer output log (0=no comp, 9=highest)
-gpgpu_stack_size_limit                 1024 # GPU thread stack size
-gpgpu_heap_size_limit              8388608 # GPU malloc heap size 
-gpgpu_runtime_sync_depth_limit                    2 # GPU device runtime synchronize depth
-gpgpu_runtime_pending_launch_count_limit                 2048 # GPU device runtime pending launch count
-trace_enabled                          0 # Turn on traces
-trace_components                    none # comma seperated list of traces to enable. Complete list found in trace_streams.tup. Default none
-trace_sampling_core                    0 # The core which is printed using CORE_DPRINTF. Default 0
-trace_sampling_memory_partition                   -1 # The memory partition which is printed using MEMPART_DPRINTF. Default -1 (i.e. all)
-enable_ptx_file_line_stats                    1 # Turn on PTX source line statistic profiling. (1 = On)
-ptx_line_stats_filename gpgpu_inst_stats.txt # Output file for PTX source line statistics.
-gpgpu_kernel_launch_latency                 5000 # Kernel launch latency in cycles. Default: 0
-gpgpu_cdp_enabled                      0 # Turn on CDP
-gpgpu_TB_launch_latency                    0 # thread block launch latency in cycles. Default: 0
-trace               ../../../../hw_run/rodinia_2.0-ft/11.0/backprop-rodinia-2.0-ft/4096___data_result_4096_txt/traces/kernelslist.g # traces kernel filetraces kernel file directory
-trace_opcode_latency_initiation_int                  4,2 # Opcode latencies and initiation for integers in trace driven mode <latency,initiation>
-trace_opcode_latency_initiation_sp                  4,2 # Opcode latencies and initiation for sp in trace driven mode <latency,initiation>
-trace_opcode_latency_initiation_dp                  8,4 # Opcode latencies and initiation for dp in trace driven mode <latency,initiation>
-trace_opcode_latency_initiation_sfu                 20,8 # Opcode latencies and initiation for sfu in trace driven mode <latency,initiation>
-trace_opcode_latency_initiation_tensor                  8,4 # Opcode latencies and initiation for tensor in trace driven mode <latency,initiation>
-trace_opcode_latency_initiation_spec_op_1                  4,4 # specialized unit config <latency,initiation>
-trace_opcode_latency_initiation_spec_op_2                200,4 # specialized unit config <latency,initiation>
-trace_opcode_latency_initiation_spec_op_3                  8,4 # specialized unit config <latency,initiation>
-trace_opcode_latency_initiation_spec_op_4                  4,2 # specialized unit config <latency,initiation>
-trace_opcode_latency_initiation_spec_op_5                  4,4 # specialized unit config <latency,initiation>
-trace_opcode_latency_initiation_spec_op_6                  4,4 # specialized unit config <latency,initiation>
-trace_opcode_latency_initiation_spec_op_7                  4,4 # specialized unit config <latency,initiation>
-trace_opcode_latency_initiation_spec_op_8                  4,4 # specialized unit config <latency,initiation>
DRAM Timing Options:
nbk                                    16 # number of banks
CCD                                     4 # column to column delay
RRD                                    10 # minimal delay between activation of rows in different banks
RCD                                    20 # row to column delay
RAS                                    50 # time needed to activate row
RP                                     20 # time needed to precharge (deactivate) row
RC                                     62 # row cycle time
CDLR                                    9 # switching from write to read (changes tWTR)
WR                                     20 # last data-in to row precharge
CL                                     20 # CAS latency
WL                                      8 # Write latency
nbkgrp                                  4 # number of bank groups
CCDL                                    4 # column to column delay between accesses to different bank groups
RTPL                                    4 # read to precharge delay between accesses to different bank groups
Total number of memory sub partition = 32
addr_dec_mask[CHIP]  = 0000000000000f00 	high:12 low:8
addr_dec_mask[BK]    = 0000000000070080 	high:19 low:7
addr_dec_mask[ROW]   = 00000000fff80000 	high:32 low:19
addr_dec_mask[COL]   = 000000000000f07f 	high:16 low:0
addr_dec_mask[BURST] = 000000000000001f 	high:5 low:0
sub_partition_id_mask = 0000000000000080
GPGPU-Sim uArch: clock freqs: 1905000000.000000:1905000000.000000:1905000000.000000:3500000000.000000
GPGPU-Sim uArch: clock periods: 0.00000000052493438320:0.00000000052493438320:0.00000000052493438320:0.00000000028571428571
*** Initializing Memory Statistics ***
GPGPU-Sim uArch: performance model initialization complete.
launching memcpy command : MemcpyHtoD,0x00007f7091700000,16388
launching memcpy command : MemcpyHtoD,0x00007f7091704400,278596
Processing kernel ../../../../hw_run/rodinia_2.0-ft/11.0/backprop-rodinia-2.0-ft/4096___data_result_4096_txt/traces/kernel-1.traceg
-kernel name = _Z22bpnn_layerforward_CUDAPfS_S_S_ii
-kernel id = 1
-grid dim = (1,256,1)
-block dim = (16,16,1)
-shmem = 1088
-nregs = 22
-binary version = 70
-cuda stream id = 0
-shmem base_addr = 0x00007f70c3000000
-local mem base_addr = 0x00007f70c5000000
-nvbit version = 1.4
-accelsim tracer version = 3
launching kernel command : ../../../../hw_run/rodinia_2.0-ft/11.0/backprop-rodinia-2.0-ft/4096___data_result_4096_txt/traces/kernel-1.traceg
GPGPU-Sim uArch: Shader 0 bind to kernel 1 '_Z22bpnn_layerforward_CUDAPfS_S_S_ii'
GPGPU-Sim uArch: CTA/core = 4, limited by: threads
thread block = 0,0,0
GPGPU-Sim uArch: Shader 1 bind to kernel 1 '_Z22bpnn_layerforward_CUDAPfS_S_S_ii'
thread block = 0,1,0
GPGPU-Sim uArch: Shader 2 bind to kernel 1 '_Z22bpnn_layerforward_CUDAPfS_S_S_ii'
thread block = 0,2,0
GPGPU-Sim uArch: Shader 3 bind to kernel 1 '_Z22bpnn_layerforward_CUDAPfS_S_S_ii'
thread block = 0,3,0
GPGPU-Sim uArch: Shader 4 bind to kernel 1 '_Z22bpnn_layerforward_CUDAPfS_S_S_ii'
thread block = 0,4,0
GPGPU-Sim uArch: Shader 5 bind to kernel 1 '_Z22bpnn_layerforward_CUDAPfS_S_S_ii'
thread block = 0,5,0
GPGPU-Sim uArch: Shader 6 bind to kernel 1 '_Z22bpnn_layerforward_CUDAPfS_S_S_ii'
thread block = 0,6,0
GPGPU-Sim uArch: Shader 7 bind to kernel 1 '_Z22bpnn_layerforward_CUDAPfS_S_S_ii'
thread block = 0,7,0
GPGPU-Sim uArch: Shader 8 bind to kernel 1 '_Z22bpnn_layerforward_CUDAPfS_S_S_ii'
thread block = 0,8,0
GPGPU-Sim uArch: Shader 9 bind to kernel 1 '_Z22bpnn_layerforward_CUDAPfS_S_S_ii'
thread block = 0,9,0
GPGPU-Sim uArch: Shader 10 bind to kernel 1 '_Z22bpnn_layerforward_CUDAPfS_S_S_ii'
thread block = 0,10,0
GPGPU-Sim uArch: Shader 11 bind to kernel 1 '_Z22bpnn_layerforward_CUDAPfS_S_S_ii'
thread block = 0,11,0
GPGPU-Sim uArch: Shader 12 bind to kernel 1 '_Z22bpnn_layerforward_CUDAPfS_S_S_ii'
thread block = 0,12,0
GPGPU-Sim uArch: Shader 13 bind to kernel 1 '_Z22bpnn_layerforward_CUDAPfS_S_S_ii'
thread block = 0,13,0
GPGPU-Sim uArch: Shader 14 bind to kernel 1 '_Z22bpnn_layerforward_CUDAPfS_S_S_ii'
thread block = 0,14,0
GPGPU-Sim uArch: Shader 15 bind to kernel 1 '_Z22bpnn_layerforward_CUDAPfS_S_S_ii'
thread block = 0,15,0
GPGPU-Sim uArch: Shader 16 bind to kernel 1 '_Z22bpnn_layerforward_CUDAPfS_S_S_ii'
thread block = 0,16,0
GPGPU-Sim uArch: Shader 17 bind to kernel 1 '_Z22bpnn_layerforward_CUDAPfS_S_S_ii'
thread block = 0,17,0
GPGPU-Sim uArch: Shader 18 bind to kernel 1 '_Z22bpnn_layerforward_CUDAPfS_S_S_ii'
thread block = 0,18,0
GPGPU-Sim uArch: Shader 19 bind to kernel 1 '_Z22bpnn_layerforward_CUDAPfS_S_S_ii'
thread block = 0,19,0
GPGPU-Sim uArch: Shader 20 bind to kernel 1 '_Z22bpnn_layerforward_CUDAPfS_S_S_ii'
thread block = 0,20,0
GPGPU-Sim uArch: Shader 21 bind to kernel 1 '_Z22bpnn_layerforward_CUDAPfS_S_S_ii'
thread block = 0,21,0
GPGPU-Sim uArch: Shader 22 bind to kernel 1 '_Z22bpnn_layerforward_CUDAPfS_S_S_ii'
thread block = 0,22,0
GPGPU-Sim uArch: Shader 23 bind to kernel 1 '_Z22bpnn_layerforward_CUDAPfS_S_S_ii'
thread block = 0,23,0
GPGPU-Sim uArch: Shader 24 bind to kernel 1 '_Z22bpnn_layerforward_CUDAPfS_S_S_ii'
thread block = 0,24,0
GPGPU-Sim uArch: Shader 25 bind to kernel 1 '_Z22bpnn_layerforward_CUDAPfS_S_S_ii'
thread block = 0,25,0
GPGPU-Sim uArch: Shader 26 bind to kernel 1 '_Z22bpnn_layerforward_CUDAPfS_S_S_ii'
thread block = 0,26,0
GPGPU-Sim uArch: Shader 27 bind to kernel 1 '_Z22bpnn_layerforward_CUDAPfS_S_S_ii'
thread block = 0,27,0
GPGPU-Sim uArch: Shader 28 bind to kernel 1 '_Z22bpnn_layerforward_CUDAPfS_S_S_ii'
thread block = 0,28,0
GPGPU-Sim uArch: Shader 29 bind to kernel 1 '_Z22bpnn_layerforward_CUDAPfS_S_S_ii'
thread block = 0,29,0
GPGPU-Sim uArch: Shader 30 bind to kernel 1 '_Z22bpnn_layerforward_CUDAPfS_S_S_ii'
thread block = 0,30,0
GPGPU-Sim uArch: Shader 31 bind to kernel 1 '_Z22bpnn_layerforward_CUDAPfS_S_S_ii'
thread block = 0,31,0
GPGPU-Sim uArch: Shader 32 bind to kernel 1 '_Z22bpnn_layerforward_CUDAPfS_S_S_ii'
thread block = 0,32,0
GPGPU-Sim uArch: Shader 33 bind to kernel 1 '_Z22bpnn_layerforward_CUDAPfS_S_S_ii'
thread block = 0,33,0
thread block = 0,34,0
thread block = 0,35,0
thread block = 0,36,0
thread block = 0,37,0
thread block = 0,38,0
thread block = 0,39,0
thread block = 0,40,0
thread block = 0,41,0
thread block = 0,42,0
thread block = 0,43,0
thread block = 0,44,0
thread block = 0,45,0
thread block = 0,46,0
thread block = 0,47,0
thread block = 0,48,0
thread block = 0,49,0
thread block = 0,50,0
thread block = 0,51,0
thread block = 0,52,0
thread block = 0,53,0
thread block = 0,54,0
thread block = 0,55,0
thread block = 0,56,0
thread block = 0,57,0
thread block = 0,58,0
thread block = 0,59,0
thread block = 0,60,0
thread block = 0,61,0
thread block = 0,62,0
thread block = 0,63,0
thread block = 0,64,0
thread block = 0,65,0
thread block = 0,66,0
thread block = 0,67,0
thread block = 0,68,0
thread block = 0,69,0
thread block = 0,70,0
thread block = 0,71,0
thread block = 0,72,0
thread block = 0,73,0
thread block = 0,74,0
thread block = 0,75,0
thread block = 0,76,0
thread block = 0,77,0
thread block = 0,78,0
thread block = 0,79,0
thread block = 0,80,0
thread block = 0,81,0
thread block = 0,82,0
thread block = 0,83,0
thread block = 0,84,0
thread block = 0,85,0
thread block = 0,86,0
thread block = 0,87,0
thread block = 0,88,0
thread block = 0,89,0
thread block = 0,90,0
thread block = 0,91,0
thread block = 0,92,0
thread block = 0,93,0
thread block = 0,94,0
thread block = 0,95,0
thread block = 0,96,0
thread block = 0,97,0
thread block = 0,98,0
thread block = 0,99,0
thread block = 0,100,0
thread block = 0,101,0
thread block = 0,102,0
thread block = 0,103,0
thread block = 0,104,0
thread block = 0,105,0
thread block = 0,106,0
thread block = 0,107,0
thread block = 0,108,0
thread block = 0,109,0
thread block = 0,110,0
thread block = 0,111,0
thread block = 0,112,0
thread block = 0,113,0
thread block = 0,114,0
thread block = 0,115,0
thread block = 0,116,0
thread block = 0,117,0
thread block = 0,118,0
thread block = 0,119,0
thread block = 0,120,0
thread block = 0,121,0
thread block = 0,122,0
thread block = 0,123,0
thread block = 0,124,0
thread block = 0,125,0
thread block = 0,126,0
thread block = 0,127,0
thread block = 0,128,0
thread block = 0,129,0
thread block = 0,130,0
thread block = 0,131,0
thread block = 0,132,0
thread block = 0,133,0
thread block = 0,134,0
thread block = 0,135,0
thread block = 0,136,0
thread block = 0,137,0
thread block = 0,138,0
thread block = 0,139,0
thread block = 0,140,0
thread block = 0,141,0
thread block = 0,142,0
thread block = 0,143,0
thread block = 0,144,0
thread block = 0,145,0
thread block = 0,146,0
thread block = 0,147,0
thread block = 0,148,0
thread block = 0,149,0
thread block = 0,150,0
thread block = 0,151,0
thread block = 0,152,0
thread block = 0,153,0
thread block = 0,154,0
thread block = 0,155,0
thread block = 0,156,0
thread block = 0,157,0
thread block = 0,158,0
thread block = 0,159,0
thread block = 0,160,0
thread block = 0,161,0
thread block = 0,162,0
thread block = 0,163,0
thread block = 0,164,0
thread block = 0,165,0
thread block = 0,166,0
thread block = 0,167,0
thread block = 0,168,0
thread block = 0,169,0
thread block = 0,170,0
thread block = 0,171,0
thread block = 0,172,0
thread block = 0,173,0
thread block = 0,174,0
thread block = 0,175,0
thread block = 0,176,0
thread block = 0,177,0
thread block = 0,178,0
thread block = 0,179,0
thread block = 0,180,0
thread block = 0,181,0
thread block = 0,182,0
thread block = 0,183,0
thread block = 0,184,0
thread block = 0,185,0
thread block = 0,186,0
thread block = 0,187,0
thread block = 0,188,0
thread block = 0,189,0
thread block = 0,190,0
thread block = 0,191,0
thread block = 0,192,0
thread block = 0,193,0
thread block = 0,194,0
thread block = 0,195,0
thread block = 0,196,0
thread block = 0,197,0
thread block = 0,198,0
thread block = 0,199,0
thread block = 0,200,0
thread block = 0,201,0
thread block = 0,202,0
thread block = 0,203,0
thread block = 0,204,0
thread block = 0,205,0
thread block = 0,206,0
thread block = 0,207,0
thread block = 0,208,0
thread block = 0,209,0
thread block = 0,210,0
thread block = 0,211,0
thread block = 0,212,0
thread block = 0,213,0
thread block = 0,214,0
thread block = 0,215,0
thread block = 0,216,0
thread block = 0,217,0
thread block = 0,218,0
thread block = 0,219,0
thread block = 0,220,0
thread block = 0,221,0
thread block = 0,222,0
thread block = 0,223,0
thread block = 0,224,0
thread block = 0,225,0
thread block = 0,226,0
thread block = 0,227,0
thread block = 0,228,0
thread block = 0,229,0
thread block = 0,230,0
thread block = 0,231,0
thread block = 0,232,0
thread block = 0,233,0
thread block = 0,234,0
thread block = 0,235,0
thread block = 0,236,0
thread block = 0,237,0
thread block = 0,238,0
thread block = 0,239,0
thread block = 0,240,0
thread block = 0,241,0
thread block = 0,242,0
thread block = 0,243,0
thread block = 0,244,0
thread block = 0,245,0
thread block = 0,246,0
thread block = 0,247,0
thread block = 0,248,0
thread block = 0,249,0
thread block = 0,250,0
thread block = 0,251,0
thread block = 0,252,0
thread block = 0,253,0
thread block = 0,254,0
thread block = 0,255,0
Destroy streams for kernel 1: size 0
kernel_name = _Z22bpnn_layerforward_CUDAPfS_S_S_ii 
kernel_launch_uid = 1 
gpu_sim_cycle = 13618
gpu_sim_insn = 6471680
gpu_ipc =     475.2298
gpu_tot_sim_cycle = 13618
gpu_tot_stall_cycle = 155355
tot_cycles_exec_all_SM = 1130420
cycles_passed = 13618
gpu_tot_sim_insn = 6471680
gpu_tot_ipc =     475.2298
gpu_tot_issued_cta = 256
gpu_occupancy = 95.0579% 
gpu_tot_occupancy = 95.0579% 
max_total_param_size = 0
gpu_stall_dramfull = 2083
gpu_stall_icnt2sh    = 0
partiton_level_parallism =       1.6459
partiton_level_parallism_total  =       1.6459
partiton_level_parallism_util =       7.3900
partiton_level_parallism_util_total  =       7.3900
L2_BW  =     108.5534 GB/Sec
L2_BW_total  =     108.5534 GB/Sec
gpu_total_sim_rate=231131

========= Core cache stats =========
L1I_cache:
	L1I_total_cache_accesses = 141312
	L1I_total_cache_misses = 19584
	L1I_total_cache_miss_rate = 0.1386
	L1I_total_cache_pending_hits = 0
	L1I_total_cache_reservation_fails = 0
L1D_cache:
	L1D_cache_core[0]: Access = 728, Miss = 460, Miss_rate = 0.632, Pending_hits = 0, Reservation_fails = 500
	L1D_cache_core[1]: Access = 832, Miss = 534, Miss_rate = 0.642, Pending_hits = 0, Reservation_fails = 521
	L1D_cache_core[2]: Access = 832, Miss = 520, Miss_rate = 0.625, Pending_hits = 0, Reservation_fails = 511
	L1D_cache_core[3]: Access = 832, Miss = 521, Miss_rate = 0.626, Pending_hits = 0, Reservation_fails = 523
	L1D_cache_core[4]: Access = 832, Miss = 520, Miss_rate = 0.625, Pending_hits = 0, Reservation_fails = 462
	L1D_cache_core[5]: Access = 832, Miss = 523, Miss_rate = 0.629, Pending_hits = 0, Reservation_fails = 547
	L1D_cache_core[6]: Access = 832, Miss = 531, Miss_rate = 0.638, Pending_hits = 0, Reservation_fails = 478
	L1D_cache_core[7]: Access = 728, Miss = 459, Miss_rate = 0.630, Pending_hits = 0, Reservation_fails = 524
	L1D_cache_core[8]: Access = 832, Miss = 521, Miss_rate = 0.626, Pending_hits = 0, Reservation_fails = 503
	L1D_cache_core[9]: Access = 832, Miss = 536, Miss_rate = 0.644, Pending_hits = 0, Reservation_fails = 562
	L1D_cache_core[10]: Access = 728, Miss = 460, Miss_rate = 0.632, Pending_hits = 0, Reservation_fails = 478
	L1D_cache_core[11]: Access = 832, Miss = 521, Miss_rate = 0.626, Pending_hits = 0, Reservation_fails = 516
	L1D_cache_core[12]: Access = 832, Miss = 519, Miss_rate = 0.624, Pending_hits = 0, Reservation_fails = 493
	L1D_cache_core[13]: Access = 832, Miss = 520, Miss_rate = 0.625, Pending_hits = 0, Reservation_fails = 557
	L1D_cache_core[14]: Access = 832, Miss = 521, Miss_rate = 0.626, Pending_hits = 0, Reservation_fails = 495
	L1D_cache_core[15]: Access = 832, Miss = 521, Miss_rate = 0.626, Pending_hits = 0, Reservation_fails = 546
	L1D_cache_core[16]: Access = 832, Miss = 538, Miss_rate = 0.647, Pending_hits = 0, Reservation_fails = 489
	L1D_cache_core[17]: Access = 832, Miss = 518, Miss_rate = 0.623, Pending_hits = 0, Reservation_fails = 545
	L1D_cache_core[18]: Access = 832, Miss = 544, Miss_rate = 0.654, Pending_hits = 0, Reservation_fails = 529
	L1D_cache_core[19]: Access = 832, Miss = 544, Miss_rate = 0.654, Pending_hits = 0, Reservation_fails = 527
	L1D_cache_core[20]: Access = 832, Miss = 519, Miss_rate = 0.624, Pending_hits = 0, Reservation_fails = 532
	L1D_cache_core[21]: Access = 832, Miss = 519, Miss_rate = 0.624, Pending_hits = 0, Reservation_fails = 540
	L1D_cache_core[22]: Access = 832, Miss = 519, Miss_rate = 0.624, Pending_hits = 0, Reservation_fails = 512
	L1D_cache_core[23]: Access = 832, Miss = 519, Miss_rate = 0.624, Pending_hits = 0, Reservation_fails = 499
	L1D_cache_core[24]: Access = 832, Miss = 543, Miss_rate = 0.653, Pending_hits = 0, Reservation_fails = 515
	L1D_cache_core[25]: Access = 832, Miss = 518, Miss_rate = 0.623, Pending_hits = 0, Reservation_fails = 525
	L1D_cache_core[26]: Access = 416, Miss = 276, Miss_rate = 0.663, Pending_hits = 0, Reservation_fails = 372
	L1D_cache_core[27]: Access = 520, Miss = 337, Miss_rate = 0.648, Pending_hits = 0, Reservation_fails = 431
	L1D_cache_core[28]: Access = 832, Miss = 518, Miss_rate = 0.623, Pending_hits = 0, Reservation_fails = 526
	L1D_cache_core[29]: Access = 832, Miss = 521, Miss_rate = 0.626, Pending_hits = 0, Reservation_fails = 509
	L1D_cache_core[30]: Access = 624, Miss = 398, Miss_rate = 0.638, Pending_hits = 0, Reservation_fails = 469
	L1D_cache_core[31]: Access = 832, Miss = 518, Miss_rate = 0.623, Pending_hits = 0, Reservation_fails = 518
	L1D_cache_core[32]: Access = 832, Miss = 520, Miss_rate = 0.625, Pending_hits = 0, Reservation_fails = 495
	L1D_cache_core[33]: Access = 416, Miss = 276, Miss_rate = 0.663, Pending_hits = 0, Reservation_fails = 397
	L1D_total_cache_accesses = 26624
	L1D_total_cache_misses = 16832
	L1D_total_cache_miss_rate = 0.6322
	L1D_total_cache_pending_hits = 0
	L1D_total_cache_reservation_fails = 17146
	L1D_cache_data_port_util = 0.035
	L1D_cache_fill_port_util = 0.034
L1C_cache:
	L1C_total_cache_accesses = 0
	L1C_total_cache_misses = 0
	L1C_total_cache_pending_hits = 0
	L1C_total_cache_reservation_fails = 0
L1T_cache:
	L1T_total_cache_accesses = 0
	L1T_total_cache_misses = 0
	L1T_total_cache_pending_hits = 0
	L1T_total_cache_reservation_fails = 0

Total_core_cache_stats:
	Total_core_cache_stats_breakdown[GLOBAL_ACC_R][HIT] = 864
	Total_core_cache_stats_breakdown[GLOBAL_ACC_R][HIT_RESERVED] = 0
	Total_core_cache_stats_breakdown[GLOBAL_ACC_R][MISS] = 6799
	Total_core_cache_stats_breakdown[GLOBAL_ACC_R][RESERVATION_FAIL] = 7614
	Total_core_cache_stats_breakdown[GLOBAL_ACC_R][SECTOR_MISS] = 6673
	Total_core_cache_stats_breakdown[GLOBAL_ACC_R][MSHR_HIT] = 3958
	Total_core_cache_stats_breakdown[LOCAL_ACC_R][HIT] = 0
	Total_core_cache_stats_breakdown[LOCAL_ACC_R][HIT_RESERVED] = 0
	Total_core_cache_stats_breakdown[LOCAL_ACC_R][MISS] = 0
	Total_core_cache_stats_breakdown[LOCAL_ACC_R][RESERVATION_FAIL] = 0
	Total_core_cache_stats_breakdown[LOCAL_ACC_R][SECTOR_MISS] = 0
	Total_core_cache_stats_breakdown[LOCAL_ACC_R][MSHR_HIT] = 0
	Total_core_cache_stats_breakdown[CONST_ACC_R][HIT] = 0
	Total_core_cache_stats_breakdown[CONST_ACC_R][HIT_RESERVED] = 0
	Total_core_cache_stats_breakdown[CONST_ACC_R][MISS] = 0
	Total_core_cache_stats_breakdown[CONST_ACC_R][RESERVATION_FAIL] = 0
	Total_core_cache_stats_breakdown[CONST_ACC_R][SECTOR_MISS] = 0
	Total_core_cache_stats_breakdown[CONST_ACC_R][MSHR_HIT] = 0
	Total_core_cache_stats_breakdown[TEXTURE_ACC_R][HIT] = 0
	Total_core_cache_stats_breakdown[TEXTURE_ACC_R][HIT_RESERVED] = 0
	Total_core_cache_stats_breakdown[TEXTURE_ACC_R][MISS] = 0
	Total_core_cache_stats_breakdown[TEXTURE_ACC_R][RESERVATION_FAIL] = 0
	Total_core_cache_stats_breakdown[TEXTURE_ACC_R][SECTOR_MISS] = 0
	Total_core_cache_stats_breakdown[TEXTURE_ACC_R][MSHR_HIT] = 0
	Total_core_cache_stats_breakdown[GLOBAL_ACC_W][HIT] = 8928
	Total_core_cache_stats_breakdown[GLOBAL_ACC_W][HIT_RESERVED] = 0
	Total_core_cache_stats_breakdown[GLOBAL_ACC_W][MISS] = 2810
	Total_core_cache_stats_breakdown[GLOBAL_ACC_W][RESERVATION_FAIL] = 9532
	Total_core_cache_stats_breakdown[GLOBAL_ACC_W][SECTOR_MISS] = 550
	Total_core_cache_stats_breakdown[GLOBAL_ACC_W][MSHR_HIT] = 0
	Total_core_cache_stats_breakdown[LOCAL_ACC_W][HIT] = 0
	Total_core_cache_stats_breakdown[LOCAL_ACC_W][HIT_RESERVED] = 0
	Total_core_cache_stats_breakdown[LOCAL_ACC_W][MISS] = 0
	Total_core_cache_stats_breakdown[LOCAL_ACC_W][RESERVATION_FAIL] = 0
	Total_core_cache_stats_breakdown[LOCAL_ACC_W][SECTOR_MISS] = 0
	Total_core_cache_stats_breakdown[LOCAL_ACC_W][MSHR_HIT] = 0
	Total_core_cache_stats_breakdown[L1_WRBK_ACC][HIT] = 0
	Total_core_cache_stats_breakdown[L1_WRBK_ACC][HIT_RESERVED] = 0
	Total_core_cache_stats_breakdown[L1_WRBK_ACC][MISS] = 0
	Total_core_cache_stats_breakdown[L1_WRBK_ACC][RESERVATION_FAIL] = 0
	Total_core_cache_stats_breakdown[L1_WRBK_ACC][SECTOR_MISS] = 0
	Total_core_cache_stats_breakdown[L1_WRBK_ACC][MSHR_HIT] = 0
	Total_core_cache_stats_breakdown[L2_WRBK_ACC][HIT] = 0
	Total_core_cache_stats_breakdown[L2_WRBK_ACC][HIT_RESERVED] = 0
	Total_core_cache_stats_breakdown[L2_WRBK_ACC][MISS] = 0
	Total_core_cache_stats_breakdown[L2_WRBK_ACC][RESERVATION_FAIL] = 0
	Total_core_cache_stats_breakdown[L2_WRBK_ACC][SECTOR_MISS] = 0
	Total_core_cache_stats_breakdown[L2_WRBK_ACC][MSHR_HIT] = 0
	Total_core_cache_stats_breakdown[INST_ACC_R][HIT] = 121728
	Total_core_cache_stats_breakdown[INST_ACC_R][HIT_RESERVED] = 0
	Total_core_cache_stats_breakdown[INST_ACC_R][MISS] = 19584
	Total_core_cache_stats_breakdown[INST_ACC_R][RESERVATION_FAIL] = 0
	Total_core_cache_stats_breakdown[INST_ACC_R][SECTOR_MISS] = 0
	Total_core_cache_stats_breakdown[INST_ACC_R][MSHR_HIT] = 18972
	Total_core_cache_stats_breakdown[L1_WR_ALLOC_R][HIT] = 0
	Total_core_cache_stats_breakdown[L1_WR_ALLOC_R][HIT_RESERVED] = 0
	Total_core_cache_stats_breakdown[L1_WR_ALLOC_R][MISS] = 0
	Total_core_cache_stats_breakdown[L1_WR_ALLOC_R][RESERVATION_FAIL] = 0
	Total_core_cache_stats_breakdown[L1_WR_ALLOC_R][SECTOR_MISS] = 0
	Total_core_cache_stats_breakdown[L1_WR_ALLOC_R][MSHR_HIT] = 0
	Total_core_cache_stats_breakdown[L2_WR_ALLOC_R][HIT] = 0
	Total_core_cache_stats_breakdown[L2_WR_ALLOC_R][HIT_RESERVED] = 0
	Total_core_cache_stats_breakdown[L2_WR_ALLOC_R][MISS] = 0
	Total_core_cache_stats_breakdown[L2_WR_ALLOC_R][RESERVATION_FAIL] = 0
	Total_core_cache_stats_breakdown[L2_WR_ALLOC_R][SECTOR_MISS] = 0
	Total_core_cache_stats_breakdown[L2_WR_ALLOC_R][MSHR_HIT] = 0
	Total_core_cache_stats_breakdown[GLOBAL_ACC_R][TOTAL_ACCESS] = 18294
	Total_core_cache_stats_breakdown[GLOBAL_ACC_W][TOTAL_ACCESS] = 12288
	Total_core_cache_stats_breakdown[INST_ACC_R][TOTAL_ACCESS] = 160284

Total_core_cache_fail_stats:
	Total_core_cache_fail_stats_breakdown[GLOBAL_ACC_R][MISS_QUEUE_FULL] = 7614
	Total_core_cache_fail_stats_breakdown[GLOBAL_ACC_W][MISS_QUEUE_FULL] = 9532
ctas_completed 256, Shader 0 warp_id issue ditsribution:
warp_id:
0, 1, 2, 3, 4, 5, 6, 7, 8, 9, 10, 11, 12, 13, 14, 15, 16, 17, 18, 19, 20, 21, 22, 23, 24, 25, 26, 27, 28, 29, 30, 31, 
distro:
274, 274, 274, 274, 274, 274, 274, 274, 274, 274, 274, 274, 274, 274, 274, 274, 274, 274, 274, 274, 274, 274, 274, 274, 137, 137, 137, 137, 137, 137, 137, 137, 
gpgpu_n_tot_thrd_icount = 6471680
gpgpu_n_tot_w_icount = 280576
gpgpu_n_stall_shd_mem = 8148
gpgpu_n_mem_read_local = 0
gpgpu_n_mem_write_local = 0
gpgpu_n_mem_read_global = 9514
gpgpu_n_mem_write_global = 12288
gpgpu_n_mem_texture = 0
gpgpu_n_mem_const = 0
gpgpu_n_load_insn  = 69632
gpgpu_n_store_insn = 69632
gpgpu_n_shmem_insn = 520192
gpgpu_n_sstarr_insn = 0
gpgpu_n_tex_insn = 0
gpgpu_n_const_mem_insn = 0
gpgpu_n_param_mem_insn = 0
gpgpu_n_shmem_bkconflict = 0
gpgpu_n_cache_bkconflict = 0
gpgpu_n_intrawarp_mshr_merge = 0
gpgpu_n_cmem_portconflict = 0
gpgpu_stall_shd_mem[c_mem][resource_stall] = 0
gpgpu_stall_shd_mem[s_mem][bk_conf] = 0
gpgpu_stall_shd_mem[gl_mem][resource_stall] = 4176
gpgpu_stall_shd_mem[gl_mem][coal_stall] = 3972
gpgpu_stall_shd_mem[gl_mem][data_port_stall] = 0
gpu_reg_bank_conflict_stalls = 0
Warp Occupancy Distribution:
Stall:201435	W0_Idle:625628	W0_Scoreboard:68861	W1:0	W2:18432	W3:0	W4:0	W5:0	W6:0	W7:0	W8:0	W9:0	W10:0	W11:0	W12:0	W13:0	W14:0	W15:0	W16:29696	W17:0	W18:0	W19:0	W20:0	W21:0	W22:0	W23:0	W24:0	W25:0	W26:0	W27:0	W28:0	W29:0	W30:2048	W31:0	W32:184320
single_issue_nums: WS0:70144	WS1:70144	WS2:70144	WS3:70144	
dual_issue_nums: WS0:0	WS1:0	WS2:0	WS3:0	
traffic_breakdown_coretomem[GLOBAL_ACC_R] = 76112 {8:9514,}
traffic_breakdown_coretomem[GLOBAL_ACC_W] = 491520 {40:12288,}
traffic_breakdown_coretomem[INST_ACC_R] = 4896 {8:612,}
traffic_breakdown_memtocore[GLOBAL_ACC_R] = 380560 {40:9514,}
traffic_breakdown_memtocore[GLOBAL_ACC_W] = 98304 {8:12288,}
traffic_breakdown_memtocore[INST_ACC_R] = 97920 {40:2448,}
ENTERING ACCELSIM HERE
maxmflatency = 559 
max_icnt2mem_latency = 200 
maxmrqlatency = 13 
max_icnt2sh_latency = 41 
averagemflatency = 231 
avg_icnt2mem_latency = 61 
avg_mrq_latency = 8 
avg_icnt2sh_latency = 6 
mrq_lat_table:21 	0 	0 	54 	0 	0 	0 	0 	0 	0 	0 	0 	0 	0 	0 	0 	0 	0 	0 	0 	0 	0 	0 	0 	0 	0 	0 	0 	0 	0 	0 	0 	
dq_lat_table:0 	0 	0 	0 	0 	0 	0 	0 	0 	0 	0 	0 	0 	0 	0 	0 	0 	0 	0 	0 	0 	0 	0 	0 	0 	0 	0 	0 	0 	0 	0 	0 	
mf_lat_table:0 	0 	0 	0 	0 	0 	0 	16265 	5529 	8 	0 	0 	0 	0 	0 	0 	0 	0 	0 	0 	0 	0 	0 	0 	0 	0 	0 	0 	0 	0 	0 	0 	
icnt2mem_lat_table:0 	513 	10 	15 	4641 	9522 	6567 	1146 	0 	0 	0 	0 	0 	0 	0 	0 	0 	0 	0 	0 	0 	0 	0 	0 	
icnt2sh_lat_table:0 	9938 	5767 	4112 	1899 	86 	0 	0 	0 	0 	0 	0 	0 	0 	0 	0 	0 	0 	0 	0 	0 	0 	0 	0 	
mf_lat_pw_table:0 	0 	0 	0 	0 	0 	0 	6 	2 	0 	0 	0 	0 	0 	0 	0 	0 	0 	0 	0 	0 	0 	0 	0 	0 	0 	0 	0 	0 	0 	0 	0 	
maximum concurrent accesses to same row:
dram[0]:         4         4         0         0         0         0         0         0         0         0         0         0         0         0         0         0 
dram[1]:         0         0         0         0         0         0         0         0         0         0         0         0         0         0         0         0 
dram[2]:         0         0         0         0         0         0         0         0         0         0         0         0         0         0         0         0 
dram[3]:         0         0         0         0         0         0         0         0         0         0         0         0         0         0         0         0 
dram[4]:         0         0         0         0         0         0         0         0         0         0         0         0         0         0         0         0 
dram[5]:         0         0         0         0         0         0         0         0         0         0         0         0         0         0         0         0 
dram[6]:         0         0         0         0         0         0         0         0         0         0         0         0         0         0         0         0 
dram[7]:         0         0         0         0         0         0         0         0         0         0         0         0         0         0         0         0 
dram[8]:         0         0         0         0         0         0         0         0         0         0         0         0         0         0         0         0 
dram[9]:         0         0         0         0         0         0         0         0         0         0         0         0         0         0         0         0 
dram[10]:         0         0         0         0         0         0         0         0         0         0         0         0         0         0         0         0 
dram[11]:         0         0         0         0         0         0         0         0         0         0         0         0         0         0         0         0 
dram[12]:         0         0         0         0         0         0         0         0         0         0         0         0         0         0         0         0 
dram[13]:         0         0         0         0         0         0         0         0         0         0         0         0         0         0         0         0 
dram[14]:         0         0         0         0         0         0         0         0         0         0         0         0         0         0         0         0 
dram[15]:         0         0         0         0         0         0         0         0         0         0         0         0         0         0         0         0 
maximum service time to same row:
dram[0]:      5266      5600         0         0         0         0         0         0         0         0         0         0         0         0         0         0 
dram[1]:      5959      6325         0         0         0         0         0         0         0         0         0         0         0         0         0         0 
dram[2]:      6704      7034         0         0         0         0         0         0         0         0         0         0         0         0         0         0 
dram[3]:      7374      7712         0         0         0         0         0         0         0         0         0         0         0         0         0         0 
dram[4]:      8074      8439         0         0         0         0         0         0         0         0         0         0         0         0         0         0 
dram[5]:      8766      9121         0         0         0         0         0         0         0         0         0         0         0         0         0         0 
dram[6]:      9456      9815         0         0         0         0         0         0         0         0         0         0         0         0         0         0 
dram[7]:     10137     10473         0         0         0         0         0         0         0         0         0         0         0         0         0         0 
dram[8]:     10857     11319         0         0         0         0         0         0         0         0         0         0         0         0         0         0 
dram[9]:         0         0         0         0         0         0         0         0         0         0         0         0         0         0         0         0 
dram[10]:         0         0         0         0         0         0         0         0         0         0         0         0         0         0         0         0 
dram[11]:         0         0         0         0         0         0         0         0         0         0         0         0         0         0         0         0 
dram[12]:         0         0         0         0         0         0         0         0         0         0         0         0         0         0         0         0 
dram[13]:         0         0         0         0         0         0         0         0         0         0         0         0         0         0         0         0 
dram[14]:         0         0         0         0         0         0         0         0         0         0         0         0         0         0         0         0 
dram[15]:         0         0         0         0         0         0         0         0         0         0         0         0         0         0         0         0 
average row accesses per activate:
dram[0]:  2.500000  2.500000      -nan      -nan      -nan      -nan      -nan      -nan      -nan      -nan      -nan      -nan      -nan      -nan      -nan      -nan 
dram[1]:  4.000000  4.000000      -nan      -nan      -nan      -nan      -nan      -nan      -nan      -nan      -nan      -nan      -nan      -nan      -nan      -nan 
dram[2]:  4.000000  4.000000      -nan      -nan      -nan      -nan      -nan      -nan      -nan      -nan      -nan      -nan      -nan      -nan      -nan      -nan 
dram[3]:  4.000000  4.000000      -nan      -nan      -nan      -nan      -nan      -nan      -nan      -nan      -nan      -nan      -nan      -nan      -nan      -nan 
dram[4]:  4.000000  4.000000      -nan      -nan      -nan      -nan      -nan      -nan      -nan      -nan      -nan      -nan      -nan      -nan      -nan      -nan 
dram[5]:  4.000000  4.000000      -nan      -nan      -nan      -nan      -nan      -nan      -nan      -nan      -nan      -nan      -nan      -nan      -nan      -nan 
dram[6]:  4.000000  4.000000      -nan      -nan      -nan      -nan      -nan      -nan      -nan      -nan      -nan      -nan      -nan      -nan      -nan      -nan 
dram[7]:  4.000000  4.000000      -nan      -nan      -nan      -nan      -nan      -nan      -nan      -nan      -nan      -nan      -nan      -nan      -nan      -nan 
dram[8]:  4.000000  4.000000      -nan      -nan      -nan      -nan      -nan      -nan      -nan      -nan      -nan      -nan      -nan      -nan      -nan      -nan 
dram[9]:      -nan      -nan      -nan      -nan      -nan      -nan      -nan      -nan      -nan      -nan      -nan      -nan      -nan      -nan      -nan      -nan 
dram[10]:      -nan      -nan      -nan      -nan      -nan      -nan      -nan      -nan      -nan      -nan      -nan      -nan      -nan      -nan      -nan      -nan 
dram[11]:      -nan      -nan      -nan      -nan      -nan      -nan      -nan      -nan      -nan      -nan      -nan      -nan      -nan      -nan      -nan      -nan 
dram[12]:      -nan      -nan      -nan      -nan      -nan      -nan      -nan      -nan      -nan      -nan      -nan      -nan      -nan      -nan      -nan      -nan 
dram[13]:      -nan      -nan      -nan      -nan      -nan      -nan      -nan      -nan      -nan      -nan      -nan      -nan      -nan      -nan      -nan      -nan 
dram[14]:      -nan      -nan      -nan      -nan      -nan      -nan      -nan      -nan      -nan      -nan      -nan      -nan      -nan      -nan      -nan      -nan 
dram[15]:       inf      -nan      -nan      -nan      -nan      -nan      -nan      -nan      -nan      -nan      -nan      -nan      -nan      -nan      -nan      -nan 
average row locality = 75/20 = 3.750000
number of total memory accesses made:
dram[0]:         0         0         0         0         0         0         0         0         0         0         0         0         0         0         0         0 
dram[1]:         0         0         0         0         0         0         0         0         0         0         0         0         0         0         0         0 
dram[2]:         0         0         0         0         0         0         0         0         0         0         0         0         0         0         0         0 
dram[3]:         0         0         0         0         0         0         0         0         0         0         0         0         0         0         0         0 
dram[4]:         0         0         0         0         0         0         0         0         0         0         0         0         0         0         0         0 
dram[5]:         0         0         0         0         0         0         0         0         0         0         0         0         0         0         0         0 
dram[6]:         0         0         0         0         0         0         0         0         0         0         0         0         0         0         0         0 
dram[7]:         0         0         0         0         0         0         0         0         0         0         0         0         0         0         0         0 
dram[8]:         0         0         0         0         0         0         0         0         0         0         0         0         0         0         0         0 
dram[9]:         0         0         0         0         0         0         0         0         0         0         0         0         0         0         0         0 
dram[10]:         0         0         0         0         0         0         0         0         0         0         0         0         0         0         0         0 
dram[11]:         0         0         0         0         0         0         0         0         0         0         0         0         0         0         0         0 
dram[12]:         0         0         0         0         0         0         0         0         0         0         0         0         0         0         0         0 
dram[13]:         0         0         0         0         0         0         0         0         0         0         0         0         0         0         0         0 
dram[14]:         0         0         0         0         0         0         0         0         0         0         0         0         0         0         0         0 
dram[15]:         0         0         0         0         0         0         0         0         0         0         0         0         0         0         0         0 
total accesses: 0
min_bank_accesses = 0!
min_chip_accesses = 0!
number of total read accesses:
dram[0]:         5         5         0         0         0         0         0         0         0         0         0         0         0         0         0         0 
dram[1]:         4         4         0         0         0         0         0         0         0         0         0         0         0         0         0         0 
dram[2]:         4         4         0         0         0         0         0         0         0         0         0         0         0         0         0         0 
dram[3]:         4         4         0         0         0         0         0         0         0         0         0         0         0         0         0         0 
dram[4]:         4         4         0         0         0         0         0         0         0         0         0         0         0         0         0         0 
dram[5]:         4         4         0         0         0         0         0         0         0         0         0         0         0         0         0         0 
dram[6]:         4         4         0         0         0         0         0         0         0         0         0         0         0         0         0         0 
dram[7]:         4         4         0         0         0         0         0         0         0         0         0         0         0         0         0         0 
dram[8]:         4         4         0         0         0         0         0         0         0         0         0         0         0         0         0         0 
dram[9]:         0         0         0         0         0         0         0         0         0         0         0         0         0         0         0         0 
dram[10]:         0         0         0         0         0         0         0         0         0         0         0         0         0         0         0         0 
dram[11]:         0         0         0         0         0         0         0         0         0         0         0         0         0         0         0         0 
dram[12]:         0         0         0         0         0         0         0         0         0         0         0         0         0         0         0         0 
dram[13]:         0         0         0         0         0         0         0         0         0         0         0         0         0         0         0         0 
dram[14]:         0         0         0         0         0         0         0         0         0         0         0         0         0         0         0         0 
dram[15]:         1         0         0         0         0         0         0         0         0         0         0         0         0         0         0         0 
total dram reads = 75
min_bank_accesses = 0!
min_chip_accesses = 0!
number of total write accesses:
dram[0]:         0         0         0         0         0         0         0         0         0         0         0         0         0         0         0         0 
dram[1]:         0         0         0         0         0         0         0         0         0         0         0         0         0         0         0         0 
dram[2]:         0         0         0         0         0         0         0         0         0         0         0         0         0         0         0         0 
dram[3]:         0         0         0         0         0         0         0         0         0         0         0         0         0         0         0         0 
dram[4]:         0         0         0         0         0         0         0         0         0         0         0         0         0         0         0         0 
dram[5]:         0         0         0         0         0         0         0         0         0         0         0         0         0         0         0         0 
dram[6]:         0         0         0         0         0         0         0         0         0         0         0         0         0         0         0         0 
dram[7]:         0         0         0         0         0         0         0         0         0         0         0         0         0         0         0         0 
dram[8]:         0         0         0         0         0         0         0         0         0         0         0         0         0         0         0         0 
dram[9]:         0         0         0         0         0         0         0         0         0         0         0         0         0         0         0         0 
dram[10]:         0         0         0         0         0         0         0         0         0         0         0         0         0         0         0         0 
dram[11]:         0         0         0         0         0         0         0         0         0         0         0         0         0         0         0         0 
dram[12]:         0         0         0         0         0         0         0         0         0         0         0         0         0         0         0         0 
dram[13]:         0         0         0         0         0         0         0         0         0         0         0         0         0         0         0         0 
dram[14]:         0         0         0         0         0         0         0         0         0         0         0         0         0         0         0         0 
dram[15]:         0         0         0         0         0         0         0         0         0         0         0         0         0         0         0         0 
total dram writes = 0
min_bank_accesses = 0!
min_chip_accesses = 0!
average mf latency per bank:
dram[0]:       6046      7050    none      none      none      none      none      none      none      none      none      none      none      none      none      none  
dram[1]:       6215      6163    none      none      none      none      none      none      none      none      none      none      none      none      none      none  
dram[2]:       7018      6330    none      none      none      none      none      none      none      none      none      none      none      none      none      none  
dram[3]:       6137      6322    none      none      none      none      none      none      none      none      none      none      none      none      none      none  
dram[4]:       6378      6751    none      none      none      none      none      none      none      none      none      none      none      none      none      none  
dram[5]:       6731      6588    none      none      none      none      none      none      none      none      none      none      none      none      none      none  
dram[6]:       6670      6746    none      none      none      none      none      none      none      none      none      none      none      none      none      none  
dram[7]:       6746      6804    none      none      none      none      none      none      none      none      none      none      none      none      none      none  
dram[8]:       6657      6657    none      none      none      none      none      none      none      none      none      none      none      none      none      none  
dram[9]:     none      none      none      none      none      none      none      none      none      none      none      none      none      none      none      none  
dram[10]:     none      none      none      none      none      none      none      none      none      none      none      none      none      none      none      none  
dram[11]:     none      none      none      none      none      none      none      none      none      none      none      none      none      none      none      none  
dram[12]:     none      none      none      none      none      none      none      none      none      none      none      none      none      none      none      none  
dram[13]:     none      none      none      none      none      none      none      none      none      none      none      none      none      none      none      none  
dram[14]:     none      none      none      none      none      none      none      none      none      none      none      none      none      none      none      none  
dram[15]:      31979    none      none      none      none      none      none      none      none      none      none      none      none      none      none      none  
maximum mf latency per bank:
dram[0]:        359       347       357       350       363       363       237       236       297       270         0         0         0         0         0         0
dram[1]:        346       353       349       356       340       323       232       237       321       293         0         0         0         0         0         0
dram[2]:        473       330       490       341       470       338       238       237       306       297         0         0         0         0         0         0
dram[3]:        355       325       351       340       374       373       234       240       310       287         0         0         0         0         0         0
dram[4]:        358       325       348       350       382       350       232       233       313       290         0         0         0         0         0         0
dram[5]:        320       329       344       342       361       353       226       222       308       304         0         0         0         0         0         0
dram[6]:        351       353       346       350       360       329       229       232       300       276         0         0         0         0         0         0
dram[7]:        342       363       345       361       337       328       233       229       289       271         0         0         0         0         0         0
dram[8]:        364       493       360       559       318       521       238       240       281       506         0         0         0         0         0         0
dram[9]:        327       370       365       370       323       341       236       239       268       298         0         0         0         0         0         0
dram[10]:        317       366       360       359       335       355       232       236       305       300         0         0         0         0         0         0
dram[11]:        346       350       373       354       358       362       234       233       286       295         0         0         0         0         0         0
dram[12]:        319       323       339       327       323       352       236       232       267       311         0         0         0         0         0         0
dram[13]:        320       333       330       330       334       347       233       240       288       287         0         0         0         0         0         0
dram[14]:        331       334       345       335       323       341       233       241       287       289         0         0         0         0         0         0
dram[15]:        339       327       342       335       314       321       232       227       268       303         0         0         0         0         0         0
Memory Partition 0: 
Cache L2_bank_000:
MSHR contents

Cache L2_bank_001:
MSHR contents

In Dram Latency Queue (total = 0): 
DRAM[0]: 16 bks, busW=2 BL=16 CL=20, tRRD=10 tCCD=4, tRCD=20 tRAS=50 tRP=20 tRC=62
n_cmd=25019 n_nop=25003 n_act=4 n_pre=2 n_ref_event=0 n_req=10 n_rd=10 n_rd_L2_A=0 n_write=0 n_wr_bk=0 bw_util=0.001599
n_activity=217 dram_eff=0.1843
bk0: 5a 24951i bk1: 5a 24949i bk2: 0a 25016i bk3: 0a 25017i bk4: 0a 25017i bk5: 0a 25018i bk6: 0a 25019i bk7: 0a 25019i bk8: 0a 25019i bk9: 0a 25019i bk10: 0a 25019i bk11: 0a 25019i bk12: 0a 25020i bk13: 0a 25020i bk14: 0a 25020i bk15: 0a 25021i 

------------------------------------------------------------------------

Row_Buffer_Locality = 0.600000
Row_Buffer_Locality_read = 0.600000
Row_Buffer_Locality_write = -nan
Bank_Level_Parallism = 1.254237
Bank_Level_Parallism_Col = 0.000000
Bank_Level_Parallism_Ready = 1.000000
write_to_read_ratio_blp_rw_average = 0.000000
GrpLevelPara = 0.000000 

BW Util details:
bwutil = 0.001599 
total_CMD = 25019 
util_bw = 40 
Wasted_Col = 67 
Wasted_Row = 20 
Idle = 24892 

BW Util Bottlenecks: 
RCDc_limit = 76 
RCDWRc_limit = 0 
WTRc_limit = 0 
RTWc_limit = 0 
CCDLc_limit = 0 
rwq = 0 
CCDLc_limit_alone = 0 
WTRc_limit_alone = 0 
RTWc_limit_alone = 0 

Commands details: 
total_CMD = 25019 
n_nop = 25003 
Read = 10 
Write = 0 
L2_Alloc = 0 
L2_WB = 0 
n_act = 4 
n_pre = 2 
n_ref = 0 
n_req = 10 
total_req = 10 

Dual Bus Interface Util: 
issued_total_row = 6 
issued_total_col = 10 
Row_Bus_Util =  0.000240 
CoL_Bus_Util = 0.000400 
Either_Row_CoL_Bus_Util = 0.000640 
Issued_on_Two_Bus_Simul_Util = 0.000000 
issued_two_Eff = 0.000000 
queue_avg = 0.005236 


dram_util_bins: 0 0 0 0 0 0 0 0 0 0
dram_eff_bins: 0 0 0 0 0 0 0 0 0 0
mrqq: max=3 avg=0.00523602
Memory Partition 1: 
Cache L2_bank_002:
MSHR contents

Cache L2_bank_003:
MSHR contents

In Dram Latency Queue (total = 0): 
DRAM[1]: 16 bks, busW=2 BL=16 CL=20, tRRD=10 tCCD=4, tRCD=20 tRAS=50 tRP=20 tRC=62
n_cmd=25019 n_nop=25009 n_act=2 n_pre=0 n_ref_event=4565638765957434729 n_req=8 n_rd=8 n_rd_L2_A=0 n_write=0 n_wr_bk=0 bw_util=0.001279
n_activity=124 dram_eff=0.2581
bk0: 4a 24991i bk1: 4a 24990i bk2: 0a 25018i bk3: 0a 25018i bk4: 0a 25018i bk5: 0a 25019i bk6: 0a 25019i bk7: 0a 25019i bk8: 0a 25019i bk9: 0a 25019i bk10: 0a 25019i bk11: 0a 25019i bk12: 0a 25019i bk13: 0a 25019i bk14: 0a 25019i bk15: 0a 25020i 

------------------------------------------------------------------------

Row_Buffer_Locality = 0.750000
Row_Buffer_Locality_read = 0.750000
Row_Buffer_Locality_write = -nan
Bank_Level_Parallism = 1.000000
Bank_Level_Parallism_Col = 362.826080
Bank_Level_Parallism_Ready = 1.000000
write_to_read_ratio_blp_rw_average = 0.000000
GrpLevelPara = 0.173913 

BW Util details:
bwutil = 0.001279 
total_CMD = 25019 
util_bw = 32 
Wasted_Col = 40 
Wasted_Row = 0 
Idle = 24947 

BW Util Bottlenecks: 
RCDc_limit = 40 
RCDWRc_limit = 0 
WTRc_limit = 0 
RTWc_limit = 0 
CCDLc_limit = 0 
rwq = 0 
CCDLc_limit_alone = 0 
WTRc_limit_alone = 0 
RTWc_limit_alone = 0 

Commands details: 
total_CMD = 25019 
n_nop = 25009 
Read = 8 
Write = 0 
L2_Alloc = 0 
L2_WB = 0 
n_act = 2 
n_pre = 0 
n_ref = 4565638765957434729 
n_req = 8 
total_req = 8 

Dual Bus Interface Util: 
issued_total_row = 2 
issued_total_col = 8 
Row_Bus_Util =  0.000080 
CoL_Bus_Util = 0.000320 
Either_Row_CoL_Bus_Util = 0.000400 
Issued_on_Two_Bus_Simul_Util = 0.000000 
issued_two_Eff = 0.000000 
queue_avg = 0.005196 


dram_util_bins: 0 0 0 0 0 0 0 0 0 0
dram_eff_bins: 0 0 0 0 0 0 0 0 0 0
mrqq: max=3 avg=0.00519605
Memory Partition 2: 
Cache L2_bank_004:
MSHR contents

Cache L2_bank_005:
MSHR contents

In Dram Latency Queue (total = 0): 
DRAM[2]: 16 bks, busW=2 BL=16 CL=20, tRRD=10 tCCD=4, tRCD=20 tRAS=50 tRP=20 tRC=62
n_cmd=25019 n_nop=25009 n_act=2 n_pre=0 n_ref_event=0 n_req=8 n_rd=8 n_rd_L2_A=0 n_write=0 n_wr_bk=0 bw_util=0.001279
n_activity=124 dram_eff=0.2581
bk0: 4a 24991i bk1: 4a 24990i bk2: 0a 25018i bk3: 0a 25018i bk4: 0a 25018i bk5: 0a 25019i bk6: 0a 25019i bk7: 0a 25019i bk8: 0a 25019i bk9: 0a 25019i bk10: 0a 25019i bk11: 0a 25019i bk12: 0a 25019i bk13: 0a 25019i bk14: 0a 25019i bk15: 0a 25020i 

------------------------------------------------------------------------

Row_Buffer_Locality = 0.750000
Row_Buffer_Locality_read = 0.750000
Row_Buffer_Locality_write = -nan
Bank_Level_Parallism = 1.000000
Bank_Level_Parallism_Col = 1.000000
Bank_Level_Parallism_Ready = 1.000000
write_to_read_ratio_blp_rw_average = 0.000000
GrpLevelPara = 1.000000 

BW Util details:
bwutil = 0.001279 
total_CMD = 25019 
util_bw = 32 
Wasted_Col = 40 
Wasted_Row = 0 
Idle = 24947 

BW Util Bottlenecks: 
RCDc_limit = 40 
RCDWRc_limit = 0 
WTRc_limit = 0 
RTWc_limit = 0 
CCDLc_limit = 0 
rwq = 0 
CCDLc_limit_alone = 0 
WTRc_limit_alone = 0 
RTWc_limit_alone = 0 

Commands details: 
total_CMD = 25019 
n_nop = 25009 
Read = 8 
Write = 0 
L2_Alloc = 0 
L2_WB = 0 
n_act = 2 
n_pre = 0 
n_ref = 0 
n_req = 8 
total_req = 8 

Dual Bus Interface Util: 
issued_total_row = 2 
issued_total_col = 8 
Row_Bus_Util =  0.000080 
CoL_Bus_Util = 0.000320 
Either_Row_CoL_Bus_Util = 0.000400 
Issued_on_Two_Bus_Simul_Util = 0.000000 
issued_two_Eff = 0.000000 
queue_avg = 0.005116 


dram_util_bins: 0 0 0 0 0 0 0 0 0 0
dram_eff_bins: 0 0 0 0 0 0 0 0 0 0
mrqq: max=3 avg=0.00511611
Memory Partition 3: 
Cache L2_bank_006:
MSHR contents

Cache L2_bank_007:
MSHR contents

In Dram Latency Queue (total = 0): 
DRAM[3]: 16 bks, busW=2 BL=16 CL=20, tRRD=10 tCCD=4, tRCD=20 tRAS=50 tRP=20 tRC=62
n_cmd=25019 n_nop=25009 n_act=2 n_pre=0 n_ref_event=0 n_req=8 n_rd=8 n_rd_L2_A=0 n_write=0 n_wr_bk=0 bw_util=0.001279
n_activity=124 dram_eff=0.2581
bk0: 4a 24991i bk1: 4a 24990i bk2: 0a 25018i bk3: 0a 25018i bk4: 0a 25018i bk5: 0a 25019i bk6: 0a 25019i bk7: 0a 25019i bk8: 0a 25019i bk9: 0a 25019i bk10: 0a 25019i bk11: 0a 25019i bk12: 0a 25019i bk13: 0a 25019i bk14: 0a 25019i bk15: 0a 25020i 

------------------------------------------------------------------------

Row_Buffer_Locality = 0.750000
Row_Buffer_Locality_read = 0.750000
Row_Buffer_Locality_write = -nan
Bank_Level_Parallism = 1.000000
Bank_Level_Parallism_Col = 1.000000
Bank_Level_Parallism_Ready = 1.000000
write_to_read_ratio_blp_rw_average = 0.000000
GrpLevelPara = 1.000000 

BW Util details:
bwutil = 0.001279 
total_CMD = 25019 
util_bw = 32 
Wasted_Col = 40 
Wasted_Row = 0 
Idle = 24947 

BW Util Bottlenecks: 
RCDc_limit = 40 
RCDWRc_limit = 0 
WTRc_limit = 0 
RTWc_limit = 0 
CCDLc_limit = 0 
rwq = 0 
CCDLc_limit_alone = 0 
WTRc_limit_alone = 0 
RTWc_limit_alone = 0 

Commands details: 
total_CMD = 25019 
n_nop = 25009 
Read = 8 
Write = 0 
L2_Alloc = 0 
L2_WB = 0 
n_act = 2 
n_pre = 0 
n_ref = 0 
n_req = 8 
total_req = 8 

Dual Bus Interface Util: 
issued_total_row = 2 
issued_total_col = 8 
Row_Bus_Util =  0.000080 
CoL_Bus_Util = 0.000320 
Either_Row_CoL_Bus_Util = 0.000400 
Issued_on_Two_Bus_Simul_Util = 0.000000 
issued_two_Eff = 0.000000 
queue_avg = 0.005196 

[...]

------------------------------------------------------------------------

Row_Buffer_Locality = -nan
Row_Buffer_Locality_read = -nan
Row_Buffer_Locality_write = -nan
Bank_Level_Parallism = -nan
Bank_Level_Parallism_Col = -nan
Bank_Level_Parallism_Ready = -nan
write_to_read_ratio_blp_rw_average = -nan
GrpLevelPara = -nan 

BW Util details:
bwutil = 0.000000 
total_CMD = 39142 
util_bw = 0 
Wasted_Col = 0 
Wasted_Row = 0 
Idle = 39142 

BW Util Bottlenecks: 
RCDc_limit = 0 
RCDWRc_limit = 0 
WTRc_limit = 0 
RTWc_limit = 0 
CCDLc_limit = 0 
rwq = 0 
CCDLc_limit_alone = 0 
WTRc_limit_alone = 0 
RTWc_limit_alone = 0 

Commands details: 
total_CMD = 39142 
n_nop = 39142 
Read = 0 
Write = 0 
L2_Alloc = 0 
L2_WB = 0 
n_act = 0 
n_pre = 0 
n_ref = 0 
n_req = 0 
total_req = 0 

Dual Bus Interface Util: 
issued_total_row = 0 
issued_total_col = 0 
Row_Bus_Util =  0.000000 
CoL_Bus_Util = 0.000000 
Either_Row_CoL_Bus_Util = 0.000000 
Issued_on_Two_Bus_Simul_Util = 0.000000 
issued_two_Eff = -nan 
queue_avg = 0.000000 


dram_util_bins: 0 0 0 0 0 0 0 0 0 0
dram_eff_bins: 0 0 0 0 0 0 0 0 0 0
mrqq: max=0 avg=0
Memory Partition 13: 
Cache L2_bank_026:
MSHR contents

Cache L2_bank_027:
MSHR contents

In Dram Latency Queue (total = 0): 
DRAM[13]: 16 bks, busW=2 BL=16 CL=20, tRRD=10 tCCD=4, tRCD=20 tRAS=50 tRP=20 tRC=62
n_cmd=39142 n_nop=39142 n_act=0 n_pre=0 n_ref_event=0 n_req=0 n_rd=0 n_rd_L2_A=0 n_write=0 n_wr_bk=0 bw_util=0
n_activity=0 dram_eff=-nan
bk0: 0a 39142i bk1: 0a 39142i bk2: 0a 39142i bk3: 0a 39142i bk4: 0a 39142i bk5: 0a 39142i bk6: 0a 39142i bk7: 0a 39142i bk8: 0a 39142i bk9: 0a 39142i bk10: 0a 39142i bk11: 0a 39142i bk12: 0a 39142i bk13: 0a 39142i bk14: 0a 39142i bk15: 0a 39142i 

------------------------------------------------------------------------

Row_Buffer_Locality = -nan
Row_Buffer_Locality_read = -nan
Row_Buffer_Locality_write = -nan
Bank_Level_Parallism = -nan
Bank_Level_Parallism_Col = -nan
Bank_Level_Parallism_Ready = -nan
write_to_read_ratio_blp_rw_average = -nan
GrpLevelPara = -nan 

BW Util details:
bwutil = 0.000000 
total_CMD = 39142 
util_bw = 0 
Wasted_Col = 0 
Wasted_Row = 0 
Idle = 39142 

BW Util Bottlenecks: 
RCDc_limit = 0 
RCDWRc_limit = 0 
WTRc_limit = 0 
RTWc_limit = 0 
CCDLc_limit = 0 
rwq = 0 
CCDLc_limit_alone = 0 
WTRc_limit_alone = 0 
RTWc_limit_alone = 0 

Commands details: 
total_CMD = 39142 
n_nop = 39142 
Read = 0 
Write = 0 
L2_Alloc = 0 
L2_WB = 0 
n_act = 0 
n_pre = 0 
n_ref = 0 
n_req = 0 
total_req = 0 

Dual Bus Interface Util: 
issued_total_row = 0 
issued_total_col = 0 
Row_Bus_Util =  0.000000 
CoL_Bus_Util = 0.000000 
Either_Row_CoL_Bus_Util = 0.000000 
Issued_on_Two_Bus_Simul_Util = 0.000000 
issued_two_Eff = -nan 
queue_avg = 0.000000 


dram_util_bins: 0 0 0 0 0 0 0 0 0 0
dram_eff_bins: 0 0 0 0 0 0 0 0 0 0
mrqq: max=0 avg=0
Memory Partition 14: 
Cache L2_bank_028:
MSHR contents

Cache L2_bank_029:
MSHR contents

In Dram Latency Queue (total = 0): 
DRAM[14]: 16 bks, busW=2 BL=16 CL=20, tRRD=10 tCCD=4, tRCD=20 tRAS=50 tRP=20 tRC=62
n_cmd=39142 n_nop=39142 n_act=0 n_pre=0 n_ref_event=0 n_req=0 n_rd=0 n_rd_L2_A=0 n_write=0 n_wr_bk=0 bw_util=0
n_activity=0 dram_eff=-nan
bk0: 0a 39142i bk1: 0a 39142i bk2: 0a 39142i bk3: 0a 39142i bk4: 0a 39142i bk5: 0a 39142i bk6: 0a 39142i bk7: 0a 39142i bk8: 0a 39142i bk9: 0a 39142i bk10: 0a 39142i bk11: 0a 39142i bk12: 0a 39142i bk13: 0a 39142i bk14: 0a 39142i bk15: 0a 39142i 

------------------------------------------------------------------------

Row_Buffer_Locality = -nan
Row_Buffer_Locality_read = -nan
Row_Buffer_Locality_write = -nan
Bank_Level_Parallism = -nan
Bank_Level_Parallism_Col = -nan
Bank_Level_Parallism_Ready = -nan
write_to_read_ratio_blp_rw_average = -nan
GrpLevelPara = -nan 

BW Util details:
bwutil = 0.000000 
total_CMD = 39142 
util_bw = 0 
Wasted_Col = 0 
Wasted_Row = 0 
Idle = 39142 

BW Util Bottlenecks: 
RCDc_limit = 0 
RCDWRc_limit = 0 
WTRc_limit = 0 
RTWc_limit = 0 
CCDLc_limit = 0 
rwq = 0 
CCDLc_limit_alone = 0 
WTRc_limit_alone = 0 
RTWc_limit_alone = 0 

Commands details: 
total_CMD = 39142 
n_nop = 39142 
Read = 0 
Write = 0 
L2_Alloc = 0 
L2_WB = 0 
n_act = 0 
n_pre = 0 
n_ref = 0 
n_req = 0 
total_req = 0 

Dual Bus Interface Util: 
issued_total_row = 0 
issued_total_col = 0 
Row_Bus_Util =  0.000000 
CoL_Bus_Util = 0.000000 
Either_Row_CoL_Bus_Util = 0.000000 
Issued_on_Two_Bus_Simul_Util = 0.000000 
issued_two_Eff = -nan 
queue_avg = 0.000000 


dram_util_bins: 0 0 0 0 0 0 0 0 0 0
dram_eff_bins: 0 0 0 0 0 0 0 0 0 0
mrqq: max=0 avg=0
Memory Partition 15: 
Cache L2_bank_030:
MSHR contents

Cache L2_bank_031:
MSHR contents

In Dram Latency Queue (total = 0): 
DRAM[15]: 16 bks, busW=2 BL=16 CL=20, tRRD=10 tCCD=4, tRCD=20 tRAS=50 tRP=20 tRC=62
n_cmd=39142 n_nop=39140 n_act=1 n_pre=0 n_ref_event=0 n_req=1 n_rd=1 n_rd_L2_A=0 n_write=0 n_wr_bk=0 bw_util=0.0001022
n_activity=62 dram_eff=0.06452
bk0: 1a 39122i bk1: 0a 39142i bk2: 0a 39142i bk3: 0a 39142i bk4: 0a 39142i bk5: 0a 39142i bk6: 0a 39142i bk7: 0a 39142i bk8: 0a 39142i bk9: 0a 39142i bk10: 0a 39142i bk11: 0a 39142i bk12: 0a 39142i bk13: 0a 39142i bk14: 0a 39142i bk15: 0a 39142i 

------------------------------------------------------------------------

Row_Buffer_Locality = 1.000000
Row_Buffer_Locality_read = 1.000000
Row_Buffer_Locality_write = -nan
Bank_Level_Parallism = 1.000000
Bank_Level_Parallism_Col = 1.000000
Bank_Level_Parallism_Ready = 1.000000
write_to_read_ratio_blp_rw_average = 0.000000
GrpLevelPara = 1.000000 

BW Util details:
bwutil = 0.000102 
total_CMD = 39142 
util_bw = 4 
Wasted_Col = 20 
Wasted_Row = 0 
Idle = 39118 

BW Util Bottlenecks: 
RCDc_limit = 20 
RCDWRc_limit = 0 
WTRc_limit = 0 
RTWc_limit = 0 
CCDLc_limit = 0 
rwq = 0 
CCDLc_limit_alone = 0 
WTRc_limit_alone = 0 
RTWc_limit_alone = 0 

Commands details: 
total_CMD = 39142 
n_nop = 39140 
Read = 1 
Write = 0 
L2_Alloc = 0 
L2_WB = 0 
n_act = 1 
n_pre = 0 
n_ref = 0 
n_req = 1 
total_req = 1 

Dual Bus Interface Util: 
issued_total_row = 1 
issued_total_col = 1 
Row_Bus_Util =  0.000026 
CoL_Bus_Util = 0.000026 
Either_Row_CoL_Bus_Util = 0.000051 
Issued_on_Two_Bus_Simul_Util = 0.000000 
issued_two_Eff = 0.000000 
queue_avg = 0.000000 


dram_util_bins: 0 0 0 0 0 0 0 0 0 0
dram_eff_bins: 0 0 0 0 0 0 0 0 0 0
mrqq: max=0 avg=0

========= L2 cache stats =========
L2_cache_bank[0]: Access = 2065, Miss = 69, Miss_rate = 0.033, Pending_hits = 15, Reservation_fails = 226
L2_cache_bank[1]: Access = 2074, Miss = 69, Miss_rate = 0.033, Pending_hits = 15, Reservation_fails = 236
L2_cache_bank[2]: Access = 2042, Miss = 68, Miss_rate = 0.033, Pending_hits = 12, Reservation_fails = 109
L2_cache_bank[3]: Access = 2043, Miss = 68, Miss_rate = 0.033, Pending_hits = 12, Reservation_fails = 108
L2_cache_bank[4]: Access = 2043, Miss = 68, Miss_rate = 0.033, Pending_hits = 12, Reservation_fails = 105
L2_cache_bank[5]: Access = 2043, Miss = 68, Miss_rate = 0.033, Pending_hits = 12, Reservation_fails = 101
L2_cache_bank[6]: Access = 2044, Miss = 68, Miss_rate = 0.033, Pending_hits = 12, Reservation_fails = 106
L2_cache_bank[7]: Access = 2042, Miss = 68, Miss_rate = 0.033, Pending_hits = 12, Reservation_fails = 105
L2_cache_bank[8]: Access = 2048, Miss = 68, Miss_rate = 0.033, Pending_hits = 12, Reservation_fails = 106
L2_cache_bank[9]: Access = 2042, Miss = 68, Miss_rate = 0.033, Pending_hits = 12, Reservation_fails = 109
L2_cache_bank[10]: Access = 2045, Miss = 68, Miss_rate = 0.033, Pending_hits = 12, Reservation_fails = 107
L2_cache_bank[11]: Access = 2045, Miss = 68, Miss_rate = 0.033, Pending_hits = 12, Reservation_fails = 112
L2_cache_bank[12]: Access = 2145, Miss = 68, Miss_rate = 0.032, Pending_hits = 12, Reservation_fails = 109
L2_cache_bank[13]: Access = 2041, Miss = 68, Miss_rate = 0.033, Pending_hits = 12, Reservation_fails = 107
L2_cache_bank[14]: Access = 2042, Miss = 68, Miss_rate = 0.033, Pending_hits = 12, Reservation_fails = 105
L2_cache_bank[15]: Access = 2040, Miss = 68, Miss_rate = 0.033, Pending_hits = 12, Reservation_fails = 107
L2_cache_bank[16]: Access = 2048, Miss = 68, Miss_rate = 0.033, Pending_hits = 12, Reservation_fails = 108
L2_cache_bank[17]: Access = 2041, Miss = 68, Miss_rate = 0.033, Pending_hits = 12, Reservation_fails = 108
L2_cache_bank[18]: Access = 1906, Miss = 64, Miss_rate = 0.034, Pending_hits = 0, Reservation_fails = 0
L2_cache_bank[19]: Access = 1906, Miss = 64, Miss_rate = 0.034, Pending_hits = 0, Reservation_fails = 0
L2_cache_bank[20]: Access = 1904, Miss = 64, Miss_rate = 0.034, Pending_hits = 0, Reservation_fails = 0
L2_cache_bank[21]: Access = 1904, Miss = 64, Miss_rate = 0.034, Pending_hits = 0, Reservation_fails = 0
L2_cache_bank[22]: Access = 1906, Miss = 64, Miss_rate = 0.034, Pending_hits = 0, Reservation_fails = 0
L2_cache_bank[23]: Access = 1905, Miss = 64, Miss_rate = 0.034, Pending_hits = 0, Reservation_fails = 0
L2_cache_bank[24]: Access = 1904, Miss = 64, Miss_rate = 0.034, Pending_hits = 0, Reservation_fails = 0
L2_cache_bank[25]: Access = 1906, Miss = 64, Miss_rate = 0.034, Pending_hits = 0, Reservation_fails = 0
L2_cache_bank[26]: Access = 1908, Miss = 64, Miss_rate = 0.034, Pending_hits = 0, Reservation_fails = 0
L2_cache_bank[27]: Access = 1904, Miss = 64, Miss_rate = 0.034, Pending_hits = 0, Reservation_fails = 0
L2_cache_bank[28]: Access = 1902, Miss = 64, Miss_rate = 0.034, Pending_hits = 0, Reservation_fails = 0
L2_cache_bank[29]: Access = 1902, Miss = 64, Miss_rate = 0.034, Pending_hits = 0, Reservation_fails = 0
L2_cache_bank[30]: Access = 1923, Miss = 65, Miss_rate = 0.034, Pending_hits = 3, Reservation_fails = 108
L2_cache_bank[31]: Access = 1904, Miss = 64, Miss_rate = 0.034, Pending_hits = 0, Reservation_fails = 0
L2_total_cache_accesses = 63617
L2_total_cache_misses = 2123
L2_total_cache_miss_rate = 0.0334
L2_total_cache_pending_hits = 225
L2_total_cache_reservation_fails = 2282
L2_total_cache_breakdown:
	L2_cache_stats_breakdown[GLOBAL_ACC_R][HIT] = 28383
	L2_cache_stats_breakdown[GLOBAL_ACC_R][HIT_RESERVED] = 9
	L2_cache_stats_breakdown[GLOBAL_ACC_R][MISS] = 3
	L2_cache_stats_breakdown[GLOBAL_ACC_R][RESERVATION_FAIL] = 351
	L2_cache_stats_breakdown[GLOBAL_ACC_R][SECTOR_MISS] = 0
	L2_cache_stats_breakdown[GLOBAL_ACC_R][MSHR_HIT] = 9
	L2_cache_stats_breakdown[LOCAL_ACC_R][HIT] = 0
	L2_cache_stats_breakdown[LOCAL_ACC_R][HIT_RESERVED] = 0
	L2_cache_stats_breakdown[LOCAL_ACC_R][MISS] = 0
	L2_cache_stats_breakdown[LOCAL_ACC_R][RESERVATION_FAIL] = 0
	L2_cache_stats_breakdown[LOCAL_ACC_R][SECTOR_MISS] = 0
	L2_cache_stats_breakdown[LOCAL_ACC_R][MSHR_HIT] = 0
	L2_cache_stats_breakdown[CONST_ACC_R][HIT] = 0
	L2_cache_stats_breakdown[CONST_ACC_R][HIT_RESERVED] = 0
	L2_cache_stats_breakdown[CONST_ACC_R][MISS] = 0
	L2_cache_stats_breakdown[CONST_ACC_R][RESERVATION_FAIL] = 0
	L2_cache_stats_breakdown[CONST_ACC_R][SECTOR_MISS] = 0
	L2_cache_stats_breakdown[CONST_ACC_R][MSHR_HIT] = 0
	L2_cache_stats_breakdown[TEXTURE_ACC_R][HIT] = 0
	L2_cache_stats_breakdown[TEXTURE_ACC_R][HIT_RESERVED] = 0
	L2_cache_stats_breakdown[TEXTURE_ACC_R][MISS] = 0
	L2_cache_stats_breakdown[TEXTURE_ACC_R][RESERVATION_FAIL] = 0
	L2_cache_stats_breakdown[TEXTURE_ACC_R][SECTOR_MISS] = 0
	L2_cache_stats_breakdown[TEXTURE_ACC_R][MSHR_HIT] = 0
	L2_cache_stats_breakdown[GLOBAL_ACC_W][HIT] = 30726
	L2_cache_stats_breakdown[GLOBAL_ACC_W][HIT_RESERVED] = 0
	L2_cache_stats_breakdown[GLOBAL_ACC_W][MISS] = 128
	L2_cache_stats_breakdown[GLOBAL_ACC_W][RESERVATION_FAIL] = 0
	L2_cache_stats_breakdown[GLOBAL_ACC_W][SECTOR_MISS] = 1920
	L2_cache_stats_breakdown[GLOBAL_ACC_W][MSHR_HIT] = 0
	L2_cache_stats_breakdown[LOCAL_ACC_W][HIT] = 0
	L2_cache_stats_breakdown[LOCAL_ACC_W][HIT_RESERVED] = 0
	L2_cache_stats_breakdown[LOCAL_ACC_W][MISS] = 0
	L2_cache_stats_breakdown[LOCAL_ACC_W][RESERVATION_FAIL] = 0
	L2_cache_stats_breakdown[LOCAL_ACC_W][SECTOR_MISS] = 0
	L2_cache_stats_breakdown[LOCAL_ACC_W][MSHR_HIT] = 0
	L2_cache_stats_breakdown[L1_WRBK_ACC][HIT] = 0
	L2_cache_stats_breakdown[L1_WRBK_ACC][HIT_RESERVED] = 0
	L2_cache_stats_breakdown[L1_WRBK_ACC][MISS] = 0
	L2_cache_stats_breakdown[L1_WRBK_ACC][RESERVATION_FAIL] = 0
	L2_cache_stats_breakdown[L1_WRBK_ACC][SECTOR_MISS] = 0
	L2_cache_stats_breakdown[L1_WRBK_ACC][MSHR_HIT] = 0
	L2_cache_stats_breakdown[L2_WRBK_ACC][HIT] = 0
	L2_cache_stats_breakdown[L2_WRBK_ACC][HIT_RESERVED] = 0
	L2_cache_stats_breakdown[L2_WRBK_ACC][MISS] = 0
	L2_cache_stats_breakdown[L2_WRBK_ACC][RESERVATION_FAIL] = 0
	L2_cache_stats_breakdown[L2_WRBK_ACC][SECTOR_MISS] = 0
	L2_cache_stats_breakdown[L2_WRBK_ACC][MSHR_HIT] = 0
	L2_cache_stats_breakdown[INST_ACC_R][HIT] = 2160
	L2_cache_stats_breakdown[INST_ACC_R][HIT_RESERVED] = 216
	L2_cache_stats_breakdown[INST_ACC_R][MISS] = 18
	L2_cache_stats_breakdown[INST_ACC_R][RESERVATION_FAIL] = 1931
	L2_cache_stats_breakdown[INST_ACC_R][SECTOR_MISS] = 54
	L2_cache_stats_breakdown[INST_ACC_R][MSHR_HIT] = 216
	L2_cache_stats_breakdown[L1_WR_ALLOC_R][HIT] = 0
	L2_cache_stats_breakdown[L1_WR_ALLOC_R][HIT_RESERVED] = 0
	L2_cache_stats_breakdown[L1_WR_ALLOC_R][MISS] = 0
	L2_cache_stats_breakdown[L1_WR_ALLOC_R][RESERVATION_FAIL] = 0
	L2_cache_stats_breakdown[L1_WR_ALLOC_R][SECTOR_MISS] = 0
	L2_cache_stats_breakdown[L1_WR_ALLOC_R][MSHR_HIT] = 0
	L2_cache_stats_breakdown[L2_WR_ALLOC_R][HIT] = 0
	L2_cache_stats_breakdown[L2_WR_ALLOC_R][HIT_RESERVED] = 0
	L2_cache_stats_breakdown[L2_WR_ALLOC_R][MISS] = 0
	L2_cache_stats_breakdown[L2_WR_ALLOC_R][RESERVATION_FAIL] = 0
	L2_cache_stats_breakdown[L2_WR_ALLOC_R][SECTOR_MISS] = 0
	L2_cache_stats_breakdown[L2_WR_ALLOC_R][MSHR_HIT] = 0
	L2_cache_stats_breakdown[GLOBAL_ACC_R][TOTAL_ACCESS] = 28404
	L2_cache_stats_breakdown[GLOBAL_ACC_W][TOTAL_ACCESS] = 32774
	L2_cache_stats_breakdown[INST_ACC_R][TOTAL_ACCESS] = 2664
L2_total_cache_reservation_fail_breakdown:
	L2_cache_stats_fail_breakdown[GLOBAL_ACC_R][MSHR_MERGE_ENRTY_FAIL] = 351
	L2_cache_stats_fail_breakdown[INST_ACC_R][MSHR_MERGE_ENRTY_FAIL] = 1931
L2_cache_data_port_util = 0.090
L2_cache_fill_port_util = 0.000

icnt_total_pkts_mem_to_simt=63617
icnt_total_pkts_simt_to_mem=61781
LD_mem_lat_dist  0 0 0 0 0 0 0 0 0 0 0 0 0 0 0 0 0 0 0 0 0 0 0 0 0 0 0
ST_mem_lat_dist  0 0 0 0 0 0 0 0 0 0 0 0 0 0 0 0 0 0 0 0 0 0 0 0 0 0 0
----------------------------Interconnect-DETAILS--------------------------------
Req_Network_injected_packets_num = 61781
Req_Network_cycles = 21305
Req_Network_injected_packets_per_cycle =       2.8998 
Req_Network_conflicts_per_cycle =       1.8626
Req_Network_conflicts_per_cycle_util =       7.4466
Req_Bank_Level_Parallism =      11.5934
Req_Network_in_buffer_full_per_cycle =       0.0000
Req_Network_in_buffer_avg_util =       7.2002
Req_Network_out_buffer_full_per_cycle =       0.0000
Req_Network_out_buffer_avg_util =       0.0908

Reply_Network_injected_packets_num = 63617
Reply_Network_cycles = 21305
Reply_Network_injected_packets_per_cycle =        2.9860
Reply_Network_conflicts_per_cycle =        1.7701
Reply_Network_conflicts_per_cycle_util =       5.1794
Reply_Bank_Level_Parallism =       8.7374
Reply_Network_in_buffer_full_per_cycle =       0.0000
Reply_Network_in_buffer_avg_util =       0.6256
Reply_Network_out_buffer_full_per_cycle =       0.0000
Reply_Network_out_buffer_avg_util =       0.0878
----------------------------END-of-Interconnect-DETAILS-------------------------


gpgpu_simulation_time = 0 days, 0 hrs, 0 min, 42 sec (42 sec)
gpgpu_simulation_rate = 221192 (inst/sec)
gpgpu_simulation_rate = 507 (cycle/sec)
gpgpu_silicon_slowdown = 3757396x
TOTAL CYCLES TAKEN 21305
tot_inst_exec 370711
ICNT_TO_MEM_count 0 ICNT_TO_MEM_cycles 0
ROP_DELAY_count 0 ROP_DELAY_cycle 0
ICNT_TO_L2_QUEUE_count 0 ICNT_TO_L2_QUEUE_cycles 0
L2_TO_DRAM_QUEUE_count 0 L2_TO_DRAM_QUEUE_cycle 0
DRAM_LATENCY_QUEUE_count 0 DRAM_LATENCY_QUEUE_cycle 0
DRAM_TO_L2_QUEUE_count 0 DRAM_TO_L2_QUEUE_cycle 0
DRAM_L2_FILL_QUEUE_count 0 DRAM_L2_FILL_QUEUE_cycle 0
L2_TO_ICNT_count 0 L2_TO_ICNT_cycle 0
CLUSTER_TO_SHADER_QUEUE_count 61169 CLUSTER_TO_SHADER_QUEUE_cycle 0
ICNT_TO_SHADER_count 61169 ICNT_TO_SHADER_cycles 487197
CLUSTER_TO_SHADER_QUEUE_1_count 63617 CLUSTER_TO_SHADER_QUEUE_1_cycle 1830811
issued_inst_count 370711
SHADER_ICNT_PUSH 61169
mem_inst_issue 65543
comp_inst_issue 305168
mem_data_stall 293723
comp_data_stall 391179
ibuffer_stall 863536
comp_str_stall 0
mem_str_stall 17898
other_stall1 0
other_stall2 0
other_stall3 0
tot_cycles_exec_all_SM 1454696
mem_data_stall_issue_irr 1665095
comp_data_stall_issue_irr 2503785
ibuffer_stall_issue_irr 5792140
comp_str_stall_issue_irr 777569
mem_str_stall_issue_irr 36508
other_stall_issue_irr1 0
other_stall_issue_irr2 0
other_stall_issue_irr3 0
shared_cycle_count 117757
constant_cycle_count 0
texture_cycle_count 0
memory_cycle_count 48109
shared_cycle_cycle 623596
constant_cycle_cycle 0
texture_cycle_cycle 0
memory_cycle_cycle 4417583
texture_issue_cycle 0
memory_issue_cycle 366488
pushed_from_shader_icnt_l2_icnt 0
tex_icnt_l2_queue 0
icnt_ROP_queue 0
l2_queue_pop 0
l2_queue_reply 0
l2_dram_push 0
l2_dram_rop 0
l2_icnt_push 0
l2_dram_queue_pop 0
push_in_dram 0
push_from_dram 0
dram_l2_reached 0
icnt_back_to_shader 1042914807
reached_shader_from_icnt 490152
reach_tex_from_l2 0
reach_glob_from_icnt 0
reach_L1_from_tex 0
reached_global_from_glob 0
finish_inst 0
ROP_no_push_l2_queue_push 0
ROP_extra_cycles 0
l2_dram_rop_count 0
NO_INST_ISSUE 8457599
opp_for_ooo 0
opp_for_mem 0
dram_access_total 0
dram_write_req_total 0
dram_read_req_total 0
NUMBER OF MEM ISSUES 268308
MEMORY STALLS SUM 7496906
l2_cache_bank_access 87867 l2_cache_bank_miss 4246
l2_cache_access 87867 l2_cache_miss 4246
l2_pending 450 l2_res_fail 4564
c_mem_resource_stall 0 s_mem_bk_conf 0 gl_mem_resource_stall 11761 gl_mem_coal_stall 17865 gl_mem_data_port_stall 0
icnt_creat_inj 0
icnt_creat_arrival 0
icnt_inj_arrival 0
icnt_creat_inj_READ_REQUEST 0
icnt_creat_arrival_READ_REQUEST 0
icnt_inj_arrival_READ_REQUEST 0
icnt_creat_inj_WRITE_REQUEST 0
icnt_creat_arrival_WRITE_REQUEST 0
icnt_inj_arrival_WRITE_REQUEST 0
icnt_creat_inj_READ_REPLY 0
icnt_creat_arrival_READ_REPLY 0
icnt_inj_arrival_READ_REPLY 0
icnt_creat_inj_WRITE_REPLY 0
icnt_creat_arrival_WRITE_REPLY 0
icnt_inj_arrival_WRITE_REPLY 0
icnt_mem_total_time_spend_Ishita 0
L2_FINAL_STATS_HERE
L2_cache_access_total_Ishita 87867
L2_cache_access_miss_Ishita 4246
L2_cache_access_pending_Ishita 450
L2_cache_access_resfail_Ishita 9128
DRAM MEM_STATS_HERE
simple_dram_count 0
delay_tot_sum 0
hits_num_total 0
access_num_total 0
hits_read_num_total 0
read_num_total 0
hits_write_num_total 0
write_num_total 0
banks_1time_total 0
banks_acess_total_Ishita 0
banks_time_rw_total 0
banks_access_rw_total_Ishita 0
banks_time_ready_total 0
banks_access_ready_total_Ishita 0
average row locality 0 0 
tot_DRAM_reads 0
tot_DRAM_writes 0
bwutil_total 0
gpu_stall_dramfull_total 2083
gpu_stall_icnt2sh_total 0
icnt2mem_latency_tot 0
icnt2sh_latency_tot 0
n_act_tot 0
n_pre_tot 0
n_req_tot 0
n_wr_tot 0
total_dL1_misses 0
total_dL1_accesses 0
total_dL1_miss_rate 0
L2_total_cache_accesses 87867
L2_total_cache_misses 4246
L2_total_cache_miss_rate 0.048323
L2_total_cache_reservation_fails 4564
L1I_total_cache_accesses 327692
L1I_total_cache_misses 39168
L1I_total_cache_miss_rate 0.119527
L1I_total_cache_pending_hits 0
L1I_total_cache_reservation_fails 0
L1D_total_cache_accesses 121877
L1D_total_cache_misses 62033
L1D_total_cache_miss_rate 0.50898
L1D_total_cache_pending_hits 0
L1C_total_cache_accesses 0
L1C_total_cache_misses 0
NONE L1C_total_cache_miss_rate 0
L1D_total_cache_reservation_fails 53324
L1C_total_cache_pending_hits 0
L1C_total_cache_reservation_fails 0
L1T_total_cache_accesses 0
L1T_total_cache_misses 0
NONE L1T_total_cache_miss_rate 0
L1T_total_cache_pending_hits 0
L1T_total_cache_reservation_fails 0
comp_inst_finish_time 3793987
mem_inst_finish_time 4565598
ibuffer_flush_count1 0
ibuffer_flush_count2 0
ibuffer_flush_count3 0
replay_flush_count 0
GPGPU-Sim: *** simulation thread exiting ***
GPGPU-Sim: *** exit detected ***
