

        *** GPGPU-Sim Simulator Version 4.2.0  [build gpgpu-sim_git-commit-fc80690a07466c1876745320413ad46fcb9c3275_modified_18.0] ***


GPGPU-Sim: Configuration options:

-save_embedded_ptx                      0 # saves ptx files embedded in binary as <n>.ptx
-keep                                   0 # keep intermediate files created by GPGPU-Sim when interfacing with external programs
-gpgpu_ptx_save_converted_ptxplus                    0 # Saved converted ptxplus to a file
-gpgpu_occupancy_sm_number                   75 # The SM number to pass to ptxas when getting register usage for computing GPU occupancy. This parameter is required in the config.
-ptx_opcode_latency_int      4,13,4,5,145,32 # Opcode latencies for integers <ADD,MAX,MUL,MAD,DIV,SHFL>Default 1,1,19,25,145,32
-ptx_opcode_latency_fp          4,13,4,5,39 # Opcode latencies for single precision floating points <ADD,MAX,MUL,MAD,DIV>Default 1,1,1,1,30
-ptx_opcode_latency_dp         8,19,8,8,330 # Opcode latencies for double precision floating points <ADD,MAX,MUL,MAD,DIV>Default 8,8,8,8,335
-ptx_opcode_latency_sfu                  100 # Opcode latencies for SFU instructionsDefault 8
-ptx_opcode_latency_tesnor                   64 # Opcode latencies for Tensor instructionsDefault 64
-ptx_opcode_initiation_int          2,2,2,2,8,4 # Opcode initiation intervals for integers <ADD,MAX,MUL,MAD,DIV,SHFL>Default 1,1,4,4,32,4
-ptx_opcode_initiation_fp            2,2,2,2,4 # Opcode initiation intervals for single precision floating points <ADD,MAX,MUL,MAD,DIV>Default 1,1,1,1,5
-ptx_opcode_initiation_dp          4,4,4,4,130 # Opcode initiation intervals for double precision floating points <ADD,MAX,MUL,MAD,DIV>Default 8,8,8,8,130
-ptx_opcode_initiation_sfu                    8 # Opcode initiation intervals for sfu instructionsDefault 8
-ptx_opcode_initiation_tensor                   64 # Opcode initiation intervals for tensor instructionsDefault 64
-cdp_latency         7200,8000,100,12000,1600 # CDP API latency <cudaStreamCreateWithFlags, cudaGetParameterBufferV2_init_perWarp, cudaGetParameterBufferV2_perKernel, cudaLaunchDeviceV2_init_perWarp, cudaLaunchDevicV2_perKernel>Default 7200,8000,100,12000,1600
-network_mode                           2 # Interconnection network mode
-inter_config_file                   mesh # Interconnection network config file
-icnt_in_buffer_limit                  512 # in_buffer_limit
-icnt_out_buffer_limit                  512 # out_buffer_limit
-icnt_subnets                           2 # subnets
-icnt_arbiter_algo                      1 # arbiter_algo
-icnt_verbose                           0 # inct_verbose
-icnt_grant_cycles                      1 # grant_cycles
-gpgpu_ptx_use_cuobjdump                    1 # Use cuobjdump to extract ptx and sass from binaries
-gpgpu_experimental_lib_support                    0 # Try to extract code from cuda libraries [Broken because of unknown cudaGetExportTable]
-checkpoint_option                      0 #  checkpointing flag (0 = no checkpoint)
-checkpoint_kernel                      1 #  checkpointing during execution of which kernel (1- 1st kernel)
-checkpoint_CTA                         0 #  checkpointing after # of CTA (< less than total CTA)
-resume_option                          0 #  resume flag (0 = no resume)
-resume_kernel                          0 #  Resume from which kernel (1= 1st kernel)
-resume_CTA                             0 #  resume from which CTA 
-checkpoint_CTA_t                       0 #  resume from which CTA 
-checkpoint_insn_Y                      0 #  resume from which CTA 
-gpgpu_ptx_convert_to_ptxplus                    0 # Convert SASS (native ISA) to ptxplus and run ptxplus
-gpgpu_ptx_force_max_capability                   75 # Force maximum compute capability
-gpgpu_ptx_inst_debug_to_file                    0 # Dump executed instructions' debug information to file
-gpgpu_ptx_inst_debug_file       inst_debug.txt # Executed instructions' debug output file
-gpgpu_ptx_inst_debug_thread_uid                    1 # Thread UID for executed instructions' debug output
-gpgpu_simd_model                       1 # 1 = post-dominator
-gpgpu_shader_core_pipeline              1024:32 # shader core pipeline config, i.e., {<nthread>:<warpsize>}
-gpgpu_tex_cache:l1  N:4:128:256,L:R:m:N:L,T:512:8,128:2 # per-shader L1 texture cache  (READ-ONLY) config  {<nsets>:<bsize>:<assoc>,<rep>:<wr>:<alloc>:<wr_alloc>,<mshr>:<N>:<merge>,<mq>:<rf>}
-gpgpu_const_cache:l1 N:128:64:8,L:R:f:N:L,S:2:64,4 # per-shader L1 constant memory cache  (READ-ONLY) config  {<nsets>:<bsize>:<assoc>,<rep>:<wr>:<alloc>:<wr_alloc>,<mshr>:<N>:<merge>,<mq>} 
-gpgpu_cache:il1     N:64:128:16,L:R:f:N:L,S:2:48,4 # shader L1 instruction cache config  {<nsets>:<bsize>:<assoc>,<rep>:<wr>:<alloc>:<wr_alloc>,<mshr>:<N>:<merge>,<mq>} 
-gpgpu_cache:dl1     S:1:128:512,L:L:s:N:L,A:256:8,16:0,32 # per-shader L1 data cache config  {<nsets>:<bsize>:<assoc>,<rep>:<wr>:<alloc>:<wr_alloc>,<mshr>:<N>:<merge>,<mq> | none}
-gpgpu_l1_banks                         4 # The number of L1 cache banks
-gpgpu_l1_banks_byte_interleaving                   32 # l1 banks byte interleaving granularity
-gpgpu_l1_banks_hashing_function                    0 # l1 banks hashing function
-gpgpu_l1_latency                      20 # L1 Hit Latency
-gpgpu_smem_latency                    20 # smem Latency
-gpgpu_cache:dl1PrefL1                 none # per-shader L1 data cache config  {<nsets>:<bsize>:<assoc>,<rep>:<wr>:<alloc>:<wr_alloc>,<mshr>:<N>:<merge>,<mq> | none}
-gpgpu_cache:dl1PrefShared                 none # per-shader L1 data cache config  {<nsets>:<bsize>:<assoc>,<rep>:<wr>:<alloc>:<wr_alloc>,<mshr>:<N>:<merge>,<mq> | none}
-gpgpu_gmem_skip_L1D                    0 # global memory access skip L1D cache (implements -Xptxas -dlcm=cg, default=no skip)
-gpgpu_perfect_mem                      0 # enable perfect memory mode (no cache miss)
-gpgpu_perfect_mem_data                    0 # no wait for data on scoreboard
-gpgpu_write_sched_order                    0 # write order in which warps were executed in file
-gpgpu_follow_defined_sched_order                    0 # follow sched order written in file
-gpgpu_print_stall_data                    0 # Print verbose stall data per cycle
-gpgpu_print_cout_statements                    0 # Print verbose stall data per cycle
-gpgpu_sched_all_warps                    0 # All schedulers see all warps
-gpgpu_reply_buffer                     1 # Replay instructions which could not be executed later
-gpgpu_reply_buffer_seperate_mem_comp                    0 # Replay instructions which could not be executed later
-n_regfile_gating_group                    4 # group of lanes that should be read/written together)
-gpgpu_clock_gated_reg_file                    0 # enable clock gated reg file for power calculations
-gpgpu_clock_gated_lanes                    1 # enable clock gated lanes for power calculations
-gpgpu_shader_registers                65536 # Number of registers per shader core. Limits number of concurrent CTAs. (default 8192)
-gpgpu_registers_per_block                65536 # Maximum number of registers per CTA. (default 8192)
-gpgpu_ignore_resources_limitation                    0 # gpgpu_ignore_resources_limitation (default 0)
-gpgpu_shader_cta                      32 # Maximum number of concurrent CTAs in shader (default 8)
-gpgpu_num_cta_barriers                   16 # Maximum number of named barriers per CTA (default 16)
-gpgpu_n_clusters                      34 # number of processing clusters
-gpgpu_n_cores_per_cluster                    1 # number of simd cores per cluster
-gpgpu_n_cluster_ejection_buffer_size                   32 # number of packets in ejection buffer
-gpgpu_n_ldst_response_buffer_size                    2 # number of response packets in ld/st unit ejection buffer
-gpgpu_shmem_per_block                65536 # Size of shared memory per thread block or CTA (default 48kB)
-gpgpu_shmem_size                   65536 # Size of shared memory per shader core (default 16kB)
-gpgpu_adaptive_cache_config                    0 # adaptive_cache_config
-gpgpu_shmem_sizeDefault                65536 # Size of shared memory per shader core (default 16kB)
-gpgpu_shmem_size_PrefL1                16384 # Size of shared memory per shader core (default 16kB)
-gpgpu_shmem_size_PrefShared                16384 # Size of shared memory per shader core (default 16kB)
-gpgpu_shmem_num_banks                   32 # Number of banks in the shared memory in each shader core (default 16)
-gpgpu_shmem_limited_broadcast                    0 # Limit shared memory to do one broadcast per cycle (default on)
-gpgpu_shmem_warp_parts                    1 # Number of portions a warp is divided into for shared memory bank conflict check 
-gpgpu_mem_unit_ports                    1 # The number of memory transactions allowed per core cycle
-gpgpu_shmem_warp_parts                    1 # Number of portions a warp is divided into for shared memory bank conflict check 
-gpgpu_warpdistro_shader                   -1 # Specify which shader core to collect the warp size distribution from
-gpgpu_warp_issue_shader                    0 # Specify which shader core to collect the warp issue distribution from
-gpgpu_local_mem_map                    1 # Mapping from local memory space address to simulated GPU physical address space (default = enabled)
-gpgpu_num_reg_banks                   16 # Number of register banks (default = 8)
-gpgpu_reg_bank_use_warp_id                    0 # Use warp ID in mapping registers to banks (default = off)
-gpgpu_sub_core_model                    1 # Sub Core Volta/Pascal model (default = off)
-gpgpu_enable_specialized_operand_collector                    0 # enable_specialized_operand_collector
-gpgpu_operand_collector_num_units_sp                    4 # number of collector units (default = 4)
-gpgpu_operand_collector_num_units_dp                    0 # number of collector units (default = 0)
-gpgpu_operand_collector_num_units_sfu                    4 # number of collector units (default = 4)
-gpgpu_operand_collector_num_units_int                    0 # number of collector units (default = 0)
-gpgpu_operand_collector_num_units_tensor_core                    4 # number of collector units (default = 4)
-gpgpu_operand_collector_num_units_mem                    2 # number of collector units (default = 2)
-gpgpu_operand_collector_num_units_gen                    8 # number of collector units (default = 0)
-gpgpu_operand_collector_num_in_ports_sp                    1 # number of collector unit in ports (default = 1)
-gpgpu_operand_collector_num_in_ports_dp                    0 # number of collector unit in ports (default = 0)
-gpgpu_operand_collector_num_in_ports_sfu                    1 # number of collector unit in ports (default = 1)
-gpgpu_operand_collector_num_in_ports_int                    0 # number of collector unit in ports (default = 0)
-gpgpu_operand_collector_num_in_ports_tensor_core                    1 # number of collector unit in ports (default = 1)
-gpgpu_operand_collector_num_in_ports_mem                    1 # number of collector unit in ports (default = 1)
-gpgpu_operand_collector_num_in_ports_gen                    8 # number of collector unit in ports (default = 0)
-gpgpu_operand_collector_num_out_ports_sp                    1 # number of collector unit in ports (default = 1)
-gpgpu_operand_collector_num_out_ports_dp                    0 # number of collector unit in ports (default = 0)
-gpgpu_operand_collector_num_out_ports_sfu                    1 # number of collector unit in ports (default = 1)
-gpgpu_operand_collector_num_out_ports_int                    0 # number of collector unit in ports (default = 0)
-gpgpu_operand_collector_num_out_ports_tensor_core                    1 # number of collector unit in ports (default = 1)
-gpgpu_operand_collector_num_out_ports_mem                    1 # number of collector unit in ports (default = 1)
-gpgpu_operand_collector_num_out_ports_gen                    8 # number of collector unit in ports (default = 0)
-gpgpu_coalesce_arch                   75 # Coalescing arch (GT200 = 13, Fermi = 20)
-gpgpu_num_sched_per_core                    4 # Number of warp schedulers per core
-gpgpu_max_insn_issue_per_warp                    1 # Max number of instructions that can be issued per warp in one cycle by scheduler (either 1 or 2)
-gpgpu_dual_issue_diff_exec_units                    1 # should dual issue use two different execution unit resources (Default = 1)
-gpgpu_simt_core_sim_order                    1 # Select the simulation order of cores in a cluster (0=Fix, 1=Round-Robin)
-gpgpu_pipeline_widths 4,0,4,4,4,4,0,4,4,4,8,4,4 # Pipeline widths ID_OC_SP,ID_OC_DP,ID_OC_INT,ID_OC_SFU,ID_OC_MEM,OC_EX_SP,OC_EX_DP,OC_EX_INT,OC_EX_SFU,OC_EX_MEM,EX_WB,ID_OC_TENSOR_CORE,OC_EX_TENSOR_CORE
-gpgpu_tensor_core_avail                    1 # Tensor Core Available (default=0)
-gpgpu_num_sp_units                     4 # Number of SP units (default=1)
-gpgpu_num_dp_units                     0 # Number of DP units (default=0)
-gpgpu_num_int_units                    4 # Number of INT units (default=0)
-gpgpu_num_sfu_units                    4 # Number of SF units (default=1)
-gpgpu_num_tensor_core_units                    4 # Number of tensor_core units (default=1)
-gpgpu_num_mem_units                    1 # Number if ldst units (default=1) WARNING: not hooked up to anything
-gpgpu_scheduler                      gto # Scheduler configuration: < lrr | gto | two_level_active > If two_level_active:<num_active_warps>:<inner_prioritization>:<outer_prioritization>For complete list of prioritization values see shader.h enum scheduler_prioritization_typeDefault: gto
-gpgpu_concurrent_kernel_sm                    0 # Support concurrent kernels on a SM (default = disabled)
-gpgpu_perfect_inst_const_cache                    0 # perfect inst and const cache mode, so all inst and const hits in the cache(default = disabled)
-gpgpu_perfect_control                    0 # perfect control so that all control hazardsare resolved immediately
-gpgpu_pending_write_ignore                    0 # Ignore Pending Writes
-gpgpu_ignore_synchronization                    0 # Ignores synchronization (CAREFUL: may break execution)
-gpgpu_inst_fetch_throughput                    4 # the number of fetched intruction per warp each cycle
-gpgpu_reg_file_port_throughput                    2 # the number ports of the register file
-specialized_unit_1         1,4,4,4,4,BRA # specialized unit config {<enabled>,<num_units>:<latency>:<initiation>,<ID_OC_SPEC>:<OC_EX_SPEC>,<NAME>}
-specialized_unit_2       1,1,200,4,4,TEX # specialized unit config {<enabled>,<num_units>:<latency>:<initiation>,<ID_OC_SPEC>:<OC_EX_SPEC>,<NAME>}
-specialized_unit_3      1,4,8,4,4,TENSOR # specialized unit config {<enabled>,<num_units>:<latency>:<initiation>,<ID_OC_SPEC>:<OC_EX_SPEC>,<NAME>}
-specialized_unit_4         1,4,4,4,4,UDP # specialized unit config {<enabled>,<num_units>:<latency>:<initiation>,<ID_OC_SPEC>:<OC_EX_SPEC>,<NAME>}
-specialized_unit_5         0,4,4,4,4,BRA # specialized unit config {<enabled>,<num_units>:<latency>:<initiation>,<ID_OC_SPEC>:<OC_EX_SPEC>,<NAME>}
-specialized_unit_6         0,4,4,4,4,BRA # specialized unit config {<enabled>,<num_units>:<latency>:<initiation>,<ID_OC_SPEC>:<OC_EX_SPEC>,<NAME>}
-specialized_unit_7         0,4,4,4,4,BRA # specialized unit config {<enabled>,<num_units>:<latency>:<initiation>,<ID_OC_SPEC>:<OC_EX_SPEC>,<NAME>}
-specialized_unit_8         0,4,4,4,4,BRA # specialized unit config {<enabled>,<num_units>:<latency>:<initiation>,<ID_OC_SPEC>:<OC_EX_SPEC>,<NAME>}
-gpgpu_perf_sim_memcpy                    1 # Fill the L2 cache on memcpy
-gpgpu_simple_dram_model                    0 # simple_dram_model with fixed latency and BW
-gpgpu_dram_scheduler                    1 # 0 = fifo, 1 = FR-FCFS (defaul)
-gpgpu_dram_partition_queues          64:64:64:64 # i2$:$2d:d2$:$2i
-l2_ideal                               0 # Use a ideal L2 cache that always hit
-gpgpu_cache:dl2     S:64:128:16,L:B:m:L:P,A:192:4,32:0,32 # unified banked L2 data cache config  {<nsets>:<bsize>:<assoc>,<rep>:<wr>:<alloc>:<wr_alloc>,<mshr>:<N>:<merge>,<mq>}
-gpgpu_cache:dl2_texture_only                    0 # L2 cache used for texture only
-gpgpu_n_mem                           16 # number of memory modules (e.g. memory controllers) in gpu
-gpgpu_n_sub_partition_per_mchannel                    2 # number of memory subpartition in each memory module
-gpgpu_n_mem_per_ctrlr                    1 # number of memory chips per memory controller
-gpgpu_memlatency_stat                   14 # track and display latency statistics 0x2 enables MC, 0x4 enables queue logs
-gpgpu_frfcfs_dram_sched_queue_size                   64 # 0 = unlimited (default); # entries per chip
-gpgpu_dram_return_queue_size                  192 # 0 = unlimited (default); # entries per chip
-gpgpu_dram_buswidth                    2 # default = 4 bytes (8 bytes per cycle at DDR)
-gpgpu_dram_burst_length                   16 # Burst length of each DRAM request (default = 4 data bus cycle)
-dram_data_command_freq_ratio                    4 # Frequency ratio between DRAM data bus and command bus (default = 2 times, i.e. DDR)
-gpgpu_dram_timing_opt nbk=16:CCD=4:RRD=10:RCD=20:RAS=50:RP=20:RC=62: CL=20:WL=8:CDLR=9:WR=20:nbkgrp=4:CCDL=4:RTPL=4 # DRAM timing parameters = {nbk:tCCD:tRRD:tRCD:tRAS:tRP:tRC:CL:WL:tCDLR:tWR:nbkgrp:tCCDL:tRTPL}
-gpgpu_l2_rop_latency                  160 # ROP queue latency (default 85)
-dram_latency                         100 # DRAM latency (default 30)
-dram_dual_bus_interface                    0 # dual_bus_interface (default = 0) 
-dram_bnk_indexing_policy                    0 # dram_bnk_indexing_policy (0 = normal indexing, 1 = Xoring with the higher bits) (Default = 0)
-dram_bnkgrp_indexing_policy                    1 # dram_bnkgrp_indexing_policy (0 = take higher bits, 1 = take lower bits) (Default = 0)
-dram_seperate_write_queue_enable                    0 # Seperate_Write_Queue_Enable
-dram_write_queue_size             32:28:16 # Write_Queue_Size
-dram_elimnate_rw_turnaround                    0 # elimnate_rw_turnaround i.e set tWTR and tRTW = 0
-icnt_flit_size                        40 # icnt_flit_size
-gpgpu_mem_addr_mapping dramid@8;00000000.00000000.00000000.00000000.0000RRRR.RRRRRRRR.RBBBCCCC.BCCSSSSS # mapping memory address to dram model {dramid@<start bit>;<memory address map>}
-gpgpu_mem_addr_test                    0 # run sweep test to check address mapping for aliased address
-gpgpu_mem_address_mask                    1 # 0 = old addressing mask, 1 = new addressing mask, 2 = new add. mask + flipped bank sel and chip sel bits
-gpgpu_memory_partition_indexing                    0 # 0 = no indexing, 1 = bitwise xoring, 2 = IPoly, 3 = custom indexing
-accelwattch_xml_file accelwattch_ptx_sim.xml # AccelWattch XML file
-power_simulation_enabled                    1 # Turn on power simulator (1=On, 0=Off)
-power_per_cycle_dump                    0 # Dump detailed power output each cycle
-hw_perf_file_name            hw_perf.csv # Hardware Performance Statistics file
-hw_perf_bench_name                       # Kernel Name in Hardware Performance Statistics file
-power_simulation_mode                    0 # Switch performance counter input for power simulation (0=Sim, 1=HW, 2=HW-Sim Hybrid)
-dvfs_enabled                           0 # Turn on DVFS for power model
-aggregate_power_stats                    0 # Accumulate power across all kernels
-accelwattch_hybrid_perfsim_L1_RH                    0 # Get L1 Read Hits for Accelwattch-Hybrid from Accel-Sim
-accelwattch_hybrid_perfsim_L1_RM                    0 # Get L1 Read Misses for Accelwattch-Hybrid from Accel-Sim
-accelwattch_hybrid_perfsim_L1_WH                    0 # Get L1 Write Hits for Accelwattch-Hybrid from Accel-Sim
-accelwattch_hybrid_perfsim_L1_WM                    0 # Get L1 Write Misses for Accelwattch-Hybrid from Accel-Sim
-accelwattch_hybrid_perfsim_L2_RH                    0 # Get L2 Read Hits for Accelwattch-Hybrid from Accel-Sim
-accelwattch_hybrid_perfsim_L2_RM                    0 # Get L2 Read Misses for Accelwattch-Hybrid from Accel-Sim
-accelwattch_hybrid_perfsim_L2_WH                    0 # Get L2 Write Hits for Accelwattch-Hybrid from Accel-Sim
-accelwattch_hybrid_perfsim_L2_WM                    0 # Get L2 Write Misses for Accelwattch-Hybrid from Accel-Sim
-accelwattch_hybrid_perfsim_CC_ACC                    0 # Get Constant Cache Acesses for Accelwattch-Hybrid from Accel-Sim
-accelwattch_hybrid_perfsim_SHARED_ACC                    0 # Get Shared Memory Acesses for Accelwattch-Hybrid from Accel-Sim
-accelwattch_hybrid_perfsim_DRAM_RD                    0 # Get DRAM Reads for Accelwattch-Hybrid from Accel-Sim
-accelwattch_hybrid_perfsim_DRAM_WR                    0 # Get DRAM Writes for Accelwattch-Hybrid from Accel-Sim
-accelwattch_hybrid_perfsim_NOC                    0 # Get Interconnect Acesses for Accelwattch-Hybrid from Accel-Sim
-accelwattch_hybrid_perfsim_PIPE_DUTY                    0 # Get Pipeline Duty Cycle Acesses for Accelwattch-Hybrid from Accel-Sim
-accelwattch_hybrid_perfsim_NUM_SM_IDLE                    0 # Get Number of Idle SMs for Accelwattch-Hybrid from Accel-Sim
-accelwattch_hybrid_perfsim_CYCLES                    0 # Get Executed Cycles for Accelwattch-Hybrid from Accel-Sim
-accelwattch_hybrid_perfsim_VOLTAGE                    0 # Get Chip Voltage for Accelwattch-Hybrid from Accel-Sim
-power_trace_enabled                    0 # produce a file for the power trace (1=On, 0=Off)
-power_trace_zlevel                     6 # Compression level of the power trace output log (0=no comp, 9=highest)
-steady_power_levels_enabled                    0 # produce a file for the steady power levels (1=On, 0=Off)
-steady_state_definition                  8:4 # allowed deviation:number of samples
-gpgpu_max_cycle                        0 # terminates gpu simulation early (0 = no limit)
-gpgpu_max_insn                         0 # terminates gpu simulation early (0 = no limit)
-gpgpu_max_cta                          0 # terminates gpu simulation early (0 = no limit)
-gpgpu_max_completed_cta                    0 # terminates gpu simulation early (0 = no limit)
-gpgpu_runtime_stat                   500 # display runtime statistics such as dram utilization {<freq>:<flag>}
-liveness_message_freq                    1 # Minimum number of seconds between simulation liveness messages (0 = always print)
-gpgpu_compute_capability_major                    7 # Major compute capability version number
-gpgpu_compute_capability_minor                    5 # Minor compute capability version number
-gpgpu_flush_l1_cache                    1 # Flush L1 cache at the end of each kernel call
-gpgpu_flush_l2_cache                    0 # Flush L2 cache at the end of each kernel call
-gpgpu_deadlock_detect                    1 # Stop the simulation at deadlock (1=on (default), 0=off)
-gpgpu_ptx_instruction_classification                    0 # if enabled will classify ptx instruction types per kernel (Max 255 kernels now)
-gpgpu_ptx_sim_mode                     0 # Select between Performance (default) or Functional simulation (1)
-gpgpu_clock_domains 1905.0:1905.0:1905.0:3500.0 # Clock Domain Frequencies in MhZ {<Core Clock>:<ICNT Clock>:<L2 Clock>:<DRAM Clock>}
-gpgpu_max_concurrent_kernel                    8 # maximum kernels that can run concurrently on GPU
-gpgpu_cflog_interval                    0 # Interval between each snapshot in control flow logger
-visualizer_enabled                     0 # Turn on visualizer output (1=On, 0=Off)
-visualizer_outputfile                 NULL # Specifies the output log file for visualizer
-visualizer_zlevel                      6 # Compression level of the visualizer output log (0=no comp, 9=highest)
-gpgpu_stack_size_limit                 1024 # GPU thread stack size
-gpgpu_heap_size_limit              8388608 # GPU malloc heap size 
-gpgpu_runtime_sync_depth_limit                    2 # GPU device runtime synchronize depth
-gpgpu_runtime_pending_launch_count_limit                 2048 # GPU device runtime pending launch count
-trace_enabled                          0 # Turn on traces
-trace_components                    none # comma seperated list of traces to enable. Complete list found in trace_streams.tup. Default none
-trace_sampling_core                    0 # The core which is printed using CORE_DPRINTF. Default 0
-trace_sampling_memory_partition                   -1 # The memory partition which is printed using MEMPART_DPRINTF. Default -1 (i.e. all)
-enable_ptx_file_line_stats                    1 # Turn on PTX source line statistic profiling. (1 = On)
-ptx_line_stats_filename gpgpu_inst_stats.txt # Output file for PTX source line statistics.
-gpgpu_kernel_launch_latency                 5000 # Kernel launch latency in cycles. Default: 0
-gpgpu_cdp_enabled                      0 # Turn on CDP
-gpgpu_TB_launch_latency                    0 # thread block launch latency in cycles. Default: 0
-trace               ../../../../hw_run/rodinia_2.0-ft/11.0/heartwall-rodinia-2.0-ft/__data_test_avi_1___data_result_1_txt/traces/kernelslist.g # traces kernel filetraces kernel file directory
-trace_opcode_latency_initiation_int                  4,2 # Opcode latencies and initiation for integers in trace driven mode <latency,initiation>
-trace_opcode_latency_initiation_sp                  4,2 # Opcode latencies and initiation for sp in trace driven mode <latency,initiation>
-trace_opcode_latency_initiation_dp                  8,4 # Opcode latencies and initiation for dp in trace driven mode <latency,initiation>
-trace_opcode_latency_initiation_sfu                 20,8 # Opcode latencies and initiation for sfu in trace driven mode <latency,initiation>
-trace_opcode_latency_initiation_tensor                  8,4 # Opcode latencies and initiation for tensor in trace driven mode <latency,initiation>
-trace_opcode_latency_initiation_spec_op_1                  4,4 # specialized unit config <latency,initiation>
-trace_opcode_latency_initiation_spec_op_2                200,4 # specialized unit config <latency,initiation>
-trace_opcode_latency_initiation_spec_op_3                  8,4 # specialized unit config <latency,initiation>
-trace_opcode_latency_initiation_spec_op_4                  4,2 # specialized unit config <latency,initiation>
-trace_opcode_latency_initiation_spec_op_5                  4,4 # specialized unit config <latency,initiation>
-trace_opcode_latency_initiation_spec_op_6                  4,4 # specialized unit config <latency,initiation>
-trace_opcode_latency_initiation_spec_op_7                  4,4 # specialized unit config <latency,initiation>
-trace_opcode_latency_initiation_spec_op_8                  4,4 # specialized unit config <latency,initiation>
DRAM Timing Options:
nbk                                    16 # number of banks
CCD                                     4 # column to column delay
RRD                                    10 # minimal delay between activation of rows in different banks
RCD                                    20 # row to column delay
RAS                                    50 # time needed to activate row
RP                                     20 # time needed to precharge (deactivate) row
RC                                     62 # row cycle time
CDLR                                    9 # switching from write to read (changes tWTR)
WR                                     20 # last data-in to row precharge
CL                                     20 # CAS latency
WL                                      8 # Write latency
nbkgrp                                  4 # number of bank groups
CCDL                                    4 # column to column delay between accesses to different bank groups
RTPL                                    4 # read to precharge delay between accesses to different bank groups
Total number of memory sub partition = 32
addr_dec_mask[CHIP]  = 0000000000000f00 	high:12 low:8
addr_dec_mask[BK]    = 0000000000070080 	high:19 low:7
addr_dec_mask[ROW]   = 00000000fff80000 	high:32 low:19
addr_dec_mask[COL]   = 000000000000f07f 	high:16 low:0
addr_dec_mask[BURST] = 000000000000001f 	high:5 low:0
sub_partition_id_mask = 0000000000000080
GPGPU-Sim uArch: clock freqs: 1905000000.000000:1905000000.000000:1905000000.000000:3500000000.000000
GPGPU-Sim uArch: clock periods: 0.00000000052493438320:0.00000000052493438320:0.00000000052493438320:0.00000000028571428571
*** Initializing Memory Statistics ***
GPGPU-Sim uArch: performance model initialization complete.
launching memcpy command : MemcpyHtoD,0x00007f82eb3dca00,80
launching memcpy command : MemcpyHtoD,0x00007f82eb3dcc00,80
launching memcpy command : MemcpyHtoD,0x00007f82eb3e1200,124
launching memcpy command : MemcpyHtoD,0x00007f82eb3e1400,124
launching memcpy command : MemcpyHtoD,0x00007f8317a00810,520
launching memcpy command : MemcpyHtoD,0x00007f8317a00a18,8160
launching memcpy command : MemcpyHtoD,0x00007f82eb200000,1952256
launching memcpy command : MemcpyHtoD,0x00007f8317a00800,16
Processing kernel ../../../../hw_run/rodinia_2.0-ft/11.0/heartwall-rodinia-2.0-ft/__data_test_avi_1___data_result_1_txt/traces/kernel-1.traceg
-kernel name = _Z6kernelv
-kernel id = 1
-grid dim = (51,1,1)
-block dim = (512,1,1)
-shmem = 11872
-nregs = 43
-binary version = 70
-cuda stream id = 0
-shmem base_addr = 0x00007f833d000000
-local mem base_addr = 0x00007f833f000000
-nvbit version = 1.4
-accelsim tracer version = 3
launching kernel command : ../../../../hw_run/rodinia_2.0-ft/11.0/heartwall-rodinia-2.0-ft/__data_test_avi_1___data_result_1_txt/traces/kernel-1.traceg
GPGPU-Sim uArch: Shader 0 bind to kernel 1 '_Z6kernelv'
GPGPU-Sim uArch: CTA/core = 2, limited by: threads regs
thread block = 0,0,0
GPGPU-Sim uArch: Shader 1 bind to kernel 1 '_Z6kernelv'
thread block = 1,0,0
GPGPU-Sim uArch: Shader 2 bind to kernel 1 '_Z6kernelv'
thread block = 2,0,0
GPGPU-Sim uArch: Shader 3 bind to kernel 1 '_Z6kernelv'
thread block = 3,0,0
GPGPU-Sim uArch: Shader 4 bind to kernel 1 '_Z6kernelv'
thread block = 4,0,0
GPGPU-Sim uArch: Shader 5 bind to kernel 1 '_Z6kernelv'
thread block = 5,0,0
GPGPU-Sim uArch: Shader 6 bind to kernel 1 '_Z6kernelv'
thread block = 6,0,0
GPGPU-Sim uArch: Shader 7 bind to kernel 1 '_Z6kernelv'
thread block = 7,0,0
GPGPU-Sim uArch: Shader 8 bind to kernel 1 '_Z6kernelv'
thread block = 8,0,0
GPGPU-Sim uArch: Shader 9 bind to kernel 1 '_Z6kernelv'
thread block = 9,0,0
GPGPU-Sim uArch: Shader 10 bind to kernel 1 '_Z6kernelv'
thread block = 10,0,0
GPGPU-Sim uArch: Shader 11 bind to kernel 1 '_Z6kernelv'
thread block = 11,0,0
GPGPU-Sim uArch: Shader 12 bind to kernel 1 '_Z6kernelv'
thread block = 12,0,0
GPGPU-Sim uArch: Shader 13 bind to kernel 1 '_Z6kernelv'
thread block = 13,0,0
GPGPU-Sim uArch: Shader 14 bind to kernel 1 '_Z6kernelv'
thread block = 14,0,0
GPGPU-Sim uArch: Shader 15 bind to kernel 1 '_Z6kernelv'
thread block = 15,0,0
GPGPU-Sim uArch: Shader 16 bind to kernel 1 '_Z6kernelv'
thread block = 16,0,0
GPGPU-Sim uArch: Shader 17 bind to kernel 1 '_Z6kernelv'
thread block = 17,0,0
GPGPU-Sim uArch: Shader 18 bind to kernel 1 '_Z6kernelv'
thread block = 18,0,0
GPGPU-Sim uArch: Shader 19 bind to kernel 1 '_Z6kernelv'
thread block = 19,0,0
GPGPU-Sim uArch: Shader 20 bind to kernel 1 '_Z6kernelv'
thread block = 20,0,0
GPGPU-Sim uArch: Shader 21 bind to kernel 1 '_Z6kernelv'
thread block = 21,0,0
GPGPU-Sim uArch: Shader 22 bind to kernel 1 '_Z6kernelv'
thread block = 22,0,0
GPGPU-Sim uArch: Shader 23 bind to kernel 1 '_Z6kernelv'
thread block = 23,0,0
GPGPU-Sim uArch: Shader 24 bind to kernel 1 '_Z6kernelv'
thread block = 24,0,0
GPGPU-Sim uArch: Shader 25 bind to kernel 1 '_Z6kernelv'
thread block = 25,0,0
GPGPU-Sim uArch: Shader 26 bind to kernel 1 '_Z6kernelv'
thread block = 26,0,0
GPGPU-Sim uArch: Shader 27 bind to kernel 1 '_Z6kernelv'
thread block = 27,0,0
GPGPU-Sim uArch: Shader 28 bind to kernel 1 '_Z6kernelv'
thread block = 28,0,0
GPGPU-Sim uArch: Shader 29 bind to kernel 1 '_Z6kernelv'
thread block = 29,0,0
GPGPU-Sim uArch: Shader 30 bind to kernel 1 '_Z6kernelv'
thread block = 30,0,0
GPGPU-Sim uArch: Shader 31 bind to kernel 1 '_Z6kernelv'
thread block = 31,0,0
GPGPU-Sim uArch: Shader 32 bind to kernel 1 '_Z6kernelv'
thread block = 32,0,0
GPGPU-Sim uArch: Shader 33 bind to kernel 1 '_Z6kernelv'
thread block = 33,0,0
thread block = 34,0,0
thread block = 35,0,0
thread block = 36,0,0
thread block = 37,0,0
thread block = 38,0,0
thread block = 39,0,0
thread block = 40,0,0
thread block = 41,0,0
thread block = 42,0,0
thread block = 43,0,0
thread block = 44,0,0
thread block = 45,0,0
thread block = 46,0,0
thread block = 47,0,0
thread block = 48,0,0
thread block = 49,0,0
thread block = 50,0,0
Destroy streams for kernel 1: size 0
kernel_name = _Z6kernelv 
kernel_launch_uid = 1 
gpu_sim_cycle = 18475
gpu_sim_insn = 6900708
gpu_ipc =     373.5160
gpu_tot_sim_cycle = 18475
gpu_tot_stall_cycle = 122882
tot_cycles_exec_all_SM = 1822216
cycles_passed = 18475
gpu_tot_sim_insn = 6900708
gpu_tot_ipc =     373.5160
gpu_tot_issued_cta = 51
gpu_occupancy = 74.9970% 
gpu_tot_occupancy = 74.9970% 
max_total_param_size = 0
gpu_stall_dramfull = 4948
gpu_stall_icnt2sh    = 0
partiton_level_parallism =       2.2178
partiton_level_parallism_total  =       2.2178
partiton_level_parallism_util =       7.4837
partiton_level_parallism_util_total  =       7.4837
L2_BW  =     151.3491 GB/Sec
L2_BW_total  =     151.3491 GB/Sec
gpu_total_sim_rate=328605

========= Core cache stats =========
L1I_cache:
	L1I_total_cache_accesses = 126174
	L1I_total_cache_misses = 32476
	L1I_total_cache_miss_rate = 0.2574
	L1I_total_cache_pending_hits = 0
	L1I_total_cache_reservation_fails = 0
L1D_cache:
	L1D_cache_core[0]: Access = 1993, Miss = 1650, Miss_rate = 0.828, Pending_hits = 0, Reservation_fails = 1507
	L1D_cache_core[1]: Access = 2070, Miss = 1725, Miss_rate = 0.833, Pending_hits = 0, Reservation_fails = 1837
	L1D_cache_core[2]: Access = 1991, Miss = 1649, Miss_rate = 0.828, Pending_hits = 0, Reservation_fails = 1535
	L1D_cache_core[3]: Access = 2024, Miss = 1680, Miss_rate = 0.830, Pending_hits = 0, Reservation_fails = 1397
	L1D_cache_core[4]: Access = 2027, Miss = 1682, Miss_rate = 0.830, Pending_hits = 0, Reservation_fails = 1768
	L1D_cache_core[5]: Access = 2025, Miss = 1681, Miss_rate = 0.830, Pending_hits = 0, Reservation_fails = 1678
	L1D_cache_core[6]: Access = 2023, Miss = 1679, Miss_rate = 0.830, Pending_hits = 0, Reservation_fails = 1562
	L1D_cache_core[7]: Access = 2017, Miss = 1672, Miss_rate = 0.829, Pending_hits = 0, Reservation_fails = 1471
	L1D_cache_core[8]: Access = 2040, Miss = 1698, Miss_rate = 0.832, Pending_hits = 0, Reservation_fails = 1778
	L1D_cache_core[9]: Access = 2021, Miss = 1677, Miss_rate = 0.830, Pending_hits = 0, Reservation_fails = 1577
	L1D_cache_core[10]: Access = 1946, Miss = 1601, Miss_rate = 0.823, Pending_hits = 0, Reservation_fails = 1295
	L1D_cache_core[11]: Access = 2071, Miss = 1728, Miss_rate = 0.834, Pending_hits = 0, Reservation_fails = 1703
	L1D_cache_core[12]: Access = 2025, Miss = 1679, Miss_rate = 0.829, Pending_hits = 0, Reservation_fails = 1571
	L1D_cache_core[13]: Access = 2025, Miss = 1680, Miss_rate = 0.830, Pending_hits = 0, Reservation_fails = 1446
	L1D_cache_core[14]: Access = 2071, Miss = 1730, Miss_rate = 0.835, Pending_hits = 0, Reservation_fails = 1425
	L1D_cache_core[15]: Access = 2017, Miss = 1674, Miss_rate = 0.830, Pending_hits = 0, Reservation_fails = 1584
	L1D_cache_core[16]: Access = 1991, Miss = 1647, Miss_rate = 0.827, Pending_hits = 0, Reservation_fails = 1457
	L1D_cache_core[17]: Access = 1012, Miss = 840, Miss_rate = 0.830, Pending_hits = 0, Reservation_fails = 517
	L1D_cache_core[18]: Access = 1012, Miss = 840, Miss_rate = 0.830, Pending_hits = 0, Reservation_fails = 636
	L1D_cache_core[19]: Access = 1011, Miss = 839, Miss_rate = 0.830, Pending_hits = 0, Reservation_fails = 613
	L1D_cache_core[20]: Access = 933, Miss = 760, Miss_rate = 0.815, Pending_hits = 0, Reservation_fails = 525
	L1D_cache_core[21]: Access = 1011, Miss = 839, Miss_rate = 0.830, Pending_hits = 0, Reservation_fails = 598
	L1D_cache_core[22]: Access = 1061, Miss = 889, Miss_rate = 0.838, Pending_hits = 0, Reservation_fails = 683
	L1D_cache_core[23]: Access = 1011, Miss = 838, Miss_rate = 0.829, Pending_hits = 0, Reservation_fails = 543
	L1D_cache_core[24]: Access = 1011, Miss = 840, Miss_rate = 0.831, Pending_hits = 0, Reservation_fails = 616
	L1D_cache_core[25]: Access = 1012, Miss = 840, Miss_rate = 0.830, Pending_hits = 0, Reservation_fails = 647
	L1D_cache_core[26]: Access = 1012, Miss = 840, Miss_rate = 0.830, Pending_hits = 0, Reservation_fails = 592
	L1D_cache_core[27]: Access = 1009, Miss = 836, Miss_rate = 0.829, Pending_hits = 0, Reservation_fails = 536
	L1D_cache_core[28]: Access = 931, Miss = 759, Miss_rate = 0.815, Pending_hits = 0, Reservation_fails = 508
	L1D_cache_core[29]: Access = 1011, Miss = 839, Miss_rate = 0.830, Pending_hits = 0, Reservation_fails = 597
	L1D_cache_core[30]: Access = 1061, Miss = 889, Miss_rate = 0.838, Pending_hits = 0, Reservation_fails = 626
	L1D_cache_core[31]: Access = 1012, Miss = 841, Miss_rate = 0.831, Pending_hits = 0, Reservation_fails = 655
	L1D_cache_core[32]: Access = 1011, Miss = 840, Miss_rate = 0.831, Pending_hits = 0, Reservation_fails = 586
	L1D_cache_core[33]: Access = 1011, Miss = 838, Miss_rate = 0.829, Pending_hits = 0, Reservation_fails = 566
	L1D_total_cache_accesses = 51509
	L1D_total_cache_misses = 42739
	L1D_total_cache_miss_rate = 0.8297
	L1D_total_cache_pending_hits = 0
	L1D_total_cache_reservation_fails = 36635
	L1D_cache_data_port_util = 0.019
	L1D_cache_fill_port_util = 0.041
L1C_cache:
	L1C_total_cache_accesses = 0
	L1C_total_cache_misses = 0
	L1C_total_cache_pending_hits = 0
	L1C_total_cache_reservation_fails = 0
L1T_cache:
	L1T_total_cache_accesses = 0
	L1T_total_cache_misses = 0
	L1T_total_cache_pending_hits = 0
	L1T_total_cache_reservation_fails = 0

Total_core_cache_stats:
	Total_core_cache_stats_breakdown[GLOBAL_ACC_R][HIT] = 8770
	Total_core_cache_stats_breakdown[GLOBAL_ACC_R][HIT_RESERVED] = 0
	Total_core_cache_stats_breakdown[GLOBAL_ACC_R][MISS] = 14483
	Total_core_cache_stats_breakdown[GLOBAL_ACC_R][RESERVATION_FAIL] = 19452
	Total_core_cache_stats_breakdown[GLOBAL_ACC_R][SECTOR_MISS] = 7734
	Total_core_cache_stats_breakdown[GLOBAL_ACC_R][MSHR_HIT] = 3398
	Total_core_cache_stats_breakdown[LOCAL_ACC_R][HIT] = 0
	Total_core_cache_stats_breakdown[LOCAL_ACC_R][HIT_RESERVED] = 0
	Total_core_cache_stats_breakdown[LOCAL_ACC_R][MISS] = 0
	Total_core_cache_stats_breakdown[LOCAL_ACC_R][RESERVATION_FAIL] = 0
	Total_core_cache_stats_breakdown[LOCAL_ACC_R][SECTOR_MISS] = 0
	Total_core_cache_stats_breakdown[LOCAL_ACC_R][MSHR_HIT] = 0
	Total_core_cache_stats_breakdown[CONST_ACC_R][HIT] = 0
	Total_core_cache_stats_breakdown[CONST_ACC_R][HIT_RESERVED] = 0
	Total_core_cache_stats_breakdown[CONST_ACC_R][MISS] = 0
	Total_core_cache_stats_breakdown[CONST_ACC_R][RESERVATION_FAIL] = 0
	Total_core_cache_stats_breakdown[CONST_ACC_R][SECTOR_MISS] = 0
	Total_core_cache_stats_breakdown[CONST_ACC_R][MSHR_HIT] = 0
	Total_core_cache_stats_breakdown[TEXTURE_ACC_R][HIT] = 0
	Total_core_cache_stats_breakdown[TEXTURE_ACC_R][HIT_RESERVED] = 0
	Total_core_cache_stats_breakdown[TEXTURE_ACC_R][MISS] = 0
	Total_core_cache_stats_breakdown[TEXTURE_ACC_R][RESERVATION_FAIL] = 0
	Total_core_cache_stats_breakdown[TEXTURE_ACC_R][SECTOR_MISS] = 0
	Total_core_cache_stats_breakdown[TEXTURE_ACC_R][MSHR_HIT] = 0
	Total_core_cache_stats_breakdown[GLOBAL_ACC_W][HIT] = 0
	Total_core_cache_stats_breakdown[GLOBAL_ACC_W][HIT_RESERVED] = 0
	Total_core_cache_stats_breakdown[GLOBAL_ACC_W][MISS] = 20522
	Total_core_cache_stats_breakdown[GLOBAL_ACC_W][RESERVATION_FAIL] = 17183
	Total_core_cache_stats_breakdown[GLOBAL_ACC_W][SECTOR_MISS] = 0
	Total_core_cache_stats_breakdown[GLOBAL_ACC_W][MSHR_HIT] = 0
	Total_core_cache_stats_breakdown[LOCAL_ACC_W][HIT] = 0
	Total_core_cache_stats_breakdown[LOCAL_ACC_W][HIT_RESERVED] = 0
	Total_core_cache_stats_breakdown[LOCAL_ACC_W][MISS] = 0
	Total_core_cache_stats_breakdown[LOCAL_ACC_W][RESERVATION_FAIL] = 0
	Total_core_cache_stats_breakdown[LOCAL_ACC_W][SECTOR_MISS] = 0
	Total_core_cache_stats_breakdown[LOCAL_ACC_W][MSHR_HIT] = 0
	Total_core_cache_stats_breakdown[L1_WRBK_ACC][HIT] = 0
	Total_core_cache_stats_breakdown[L1_WRBK_ACC][HIT_RESERVED] = 0
	Total_core_cache_stats_breakdown[L1_WRBK_ACC][MISS] = 0
	Total_core_cache_stats_breakdown[L1_WRBK_ACC][RESERVATION_FAIL] = 0
	Total_core_cache_stats_breakdown[L1_WRBK_ACC][SECTOR_MISS] = 0
	Total_core_cache_stats_breakdown[L1_WRBK_ACC][MSHR_HIT] = 0
	Total_core_cache_stats_breakdown[L2_WRBK_ACC][HIT] = 0
	Total_core_cache_stats_breakdown[L2_WRBK_ACC][HIT_RESERVED] = 0
	Total_core_cache_stats_breakdown[L2_WRBK_ACC][MISS] = 0
	Total_core_cache_stats_breakdown[L2_WRBK_ACC][RESERVATION_FAIL] = 0
	Total_core_cache_stats_breakdown[L2_WRBK_ACC][SECTOR_MISS] = 0
	Total_core_cache_stats_breakdown[L2_WRBK_ACC][MSHR_HIT] = 0
	Total_core_cache_stats_breakdown[INST_ACC_R][HIT] = 93698
	Total_core_cache_stats_breakdown[INST_ACC_R][HIT_RESERVED] = 0
	Total_core_cache_stats_breakdown[INST_ACC_R][MISS] = 32476
	Total_core_cache_stats_breakdown[INST_ACC_R][RESERVATION_FAIL] = 0
	Total_core_cache_stats_breakdown[INST_ACC_R][SECTOR_MISS] = 0
	Total_core_cache_stats_breakdown[INST_ACC_R][MSHR_HIT] = 30844
	Total_core_cache_stats_breakdown[L1_WR_ALLOC_R][HIT] = 0
	Total_core_cache_stats_breakdown[L1_WR_ALLOC_R][HIT_RESERVED] = 0
	Total_core_cache_stats_breakdown[L1_WR_ALLOC_R][MISS] = 0
	Total_core_cache_stats_breakdown[L1_WR_ALLOC_R][RESERVATION_FAIL] = 0
	Total_core_cache_stats_breakdown[L1_WR_ALLOC_R][SECTOR_MISS] = 0
	Total_core_cache_stats_breakdown[L1_WR_ALLOC_R][MSHR_HIT] = 0
	Total_core_cache_stats_breakdown[L2_WR_ALLOC_R][HIT] = 0
	Total_core_cache_stats_breakdown[L2_WR_ALLOC_R][HIT_RESERVED] = 0
	Total_core_cache_stats_breakdown[L2_WR_ALLOC_R][MISS] = 0
	Total_core_cache_stats_breakdown[L2_WR_ALLOC_R][RESERVATION_FAIL] = 0
	Total_core_cache_stats_breakdown[L2_WR_ALLOC_R][SECTOR_MISS] = 0
	Total_core_cache_stats_breakdown[L2_WR_ALLOC_R][MSHR_HIT] = 0
	Total_core_cache_stats_breakdown[GLOBAL_ACC_R][TOTAL_ACCESS] = 34385
	Total_core_cache_stats_breakdown[GLOBAL_ACC_W][TOTAL_ACCESS] = 20522
	Total_core_cache_stats_breakdown[INST_ACC_R][TOTAL_ACCESS] = 157018

Total_core_cache_fail_stats:
	Total_core_cache_fail_stats_breakdown[GLOBAL_ACC_R][MISS_QUEUE_FULL] = 19452
	Total_core_cache_fail_stats_breakdown[GLOBAL_ACC_W][MISS_QUEUE_FULL] = 17183
ctas_completed 51, Shader 0 warp_id issue ditsribution:
warp_id:
0, 1, 2, 3, 4, 5, 6, 7, 8, 9, 10, 11, 12, 13, 14, 15, 16, 17, 18, 19, 20, 21, 22, 23, 24, 25, 26, 27, 28, 29, 30, 31, 
distro:
359, 360, 301, 301, 301, 301, 301, 301, 301, 301, 301, 301, 301, 301, 301, 301, 359, 360, 301, 301, 301, 301, 301, 301, 301, 301, 301, 301, 301, 301, 301, 301, 
gpgpu_n_tot_thrd_icount = 6900708
gpgpu_n_tot_w_icount = 251583
gpgpu_n_stall_shd_mem = 14727
gpgpu_n_mem_read_local = 0
gpgpu_n_mem_write_local = 0
gpgpu_n_mem_read_global = 18819
gpgpu_n_mem_write_global = 20522
gpgpu_n_mem_texture = 0
gpgpu_n_mem_const = 0
gpgpu_n_load_insn  = 398055
gpgpu_n_store_insn = 132753
gpgpu_n_shmem_insn = 0
gpgpu_n_sstarr_insn = 0
gpgpu_n_tex_insn = 0
gpgpu_n_const_mem_insn = 0
gpgpu_n_param_mem_insn = 0
gpgpu_n_shmem_bkconflict = 0
gpgpu_n_cache_bkconflict = 0
gpgpu_n_intrawarp_mshr_merge = 0
gpgpu_n_cmem_portconflict = 0
gpgpu_stall_shd_mem[c_mem][resource_stall] = 0
gpgpu_stall_shd_mem[s_mem][bk_conf] = 0
gpgpu_stall_shd_mem[gl_mem][resource_stall] = 9278
gpgpu_stall_shd_mem[gl_mem][coal_stall] = 5449
gpgpu_stall_shd_mem[gl_mem][data_port_stall] = 0
gpu_reg_bank_conflict_stalls = 0
Warp Occupancy Distribution:
Stall:261107	W0_Idle:2755314	W0_Scoreboard:187284	W1:3264	W2:51	W3:0	W4:0	W5:0	W6:0	W7:0	W8:0	W9:2805	W10:0	W11:0	W12:0	W13:0	W14:0	W15:0	W16:0	W17:0	W18:0	W19:0	W20:0	W21:0	W22:0	W23:102	W24:0	W25:0	W26:0	W27:0	W28:0	W29:0	W30:51	W31:2499	W32:212211
single_issue_nums: WS0:64362	WS1:64413	WS2:61404	WS3:61404	
dual_issue_nums: WS0:0	WS1:0	WS2:0	WS3:0	
traffic_breakdown_coretomem[GLOBAL_ACC_R] = 150552 {8:18819,}
traffic_breakdown_coretomem[GLOBAL_ACC_W] = 820880 {40:20522,}
traffic_breakdown_coretomem[INST_ACC_R] = 13056 {8:1632,}
traffic_breakdown_memtocore[GLOBAL_ACC_R] = 752760 {40:18819,}
traffic_breakdown_memtocore[GLOBAL_ACC_W] = 164176 {8:20522,}
traffic_breakdown_memtocore[INST_ACC_R] = 261120 {40:6528,}
ENTERING ACCELSIM HERE
maxmflatency = 486 
max_icnt2mem_latency = 311 
maxmrqlatency = 13 
max_icnt2sh_latency = 188 
averagemflatency = 236 
avg_icnt2mem_latency = 55 
avg_mrq_latency = 6 
avg_icnt2sh_latency = 15 
mrq_lat_table:76 	14 	0 	102 	0 	0 	0 	0 	0 	0 	0 	0 	0 	0 	0 	0 	0 	0 	0 	0 	0 	0 	0 	0 	0 	0 	0 	0 	0 	0 	0 	0 	
dq_lat_table:0 	0 	0 	0 	0 	0 	0 	0 	0 	0 	0 	0 	0 	0 	0 	0 	0 	0 	0 	0 	0 	0 	0 	0 	0 	0 	0 	0 	0 	0 	0 	0 	
mf_lat_table:0 	0 	0 	0 	0 	0 	0 	30238 	9103 	0 	0 	0 	0 	0 	0 	0 	0 	0 	0 	0 	0 	0 	0 	0 	0 	0 	0 	0 	0 	0 	0 	0 	
icnt2mem_lat_table:0 	1495 	57 	30 	5640 	21699 	11669 	330 	53 	0 	0 	0 	0 	0 	0 	0 	0 	0 	0 	0 	0 	0 	0 	0 	
icnt2sh_lat_table:0 	11620 	7296 	7524 	6895 	4585 	1317 	104 	0 	0 	0 	0 	0 	0 	0 	0 	0 	0 	0 	0 	0 	0 	0 	0 	
mf_lat_pw_table:0 	0 	0 	0 	0 	0 	0 	16 	3 	0 	0 	0 	0 	0 	0 	0 	0 	0 	0 	0 	0 	0 	0 	0 	0 	0 	0 	0 	0 	0 	0 	0 	
maximum concurrent accesses to same row:
dram[0]:         0         0         0         0         0         0         0         0         0         0         0         0         0         0         0         0 
dram[1]:         0         0         0         0         0         0         0         0         0         0         0         0         0         0         0         0 
dram[2]:         0         0         0         0         0         0         0         0         0         0         0         0         0         0         0         0 
dram[3]:         0         0         0         0         0         0         0         0         0         0         0         0         0         0         0         0 
dram[4]:         0         0         0         0         0         0         0         0         0         0         0         0         0         0         0         0 
dram[5]:         0         0         0         0         0         0         0         0         0         0         0         0         0         0         0         0 
dram[6]:         0         0         0         0         0         0         0         0         0         0         0         0         0         0         0         0 
dram[7]:         0         0         0         0         0         0         0         0         0         0         0         0         0         0         0         0 
dram[8]:         0         0         0         0         0         0         0         0         0         0         0         0         0         0         0         0 
dram[9]:         0         0         0         0         0         0         0         0         0         0         0         0         0         0         0         0 
dram[10]:         0         0         0         0         0         0         0         0         0         0         0         0         0         0         0         0 
dram[11]:         0         0         0         0         0         0         0         0         0         0         0         0         0         0         0         0 
dram[12]:         0         0         0         0         0         0         0         0         0         0         0         0         0         0         0         0 
dram[13]:         0         0         0         0         0         0         0         0         0         0         0         0         0         0         0         0 
dram[14]:         0         0         0         0         0         0         0         0         0         0         0         0         0         0         0         0 
dram[15]:         0         0         0         0         0         0         0         0         0         0         0         0         0         0         0         0 
maximum service time to same row:
dram[0]:      5266      5606         0         0         0         0         0         0         0         0         0         0         0         0         0         0 
dram[1]:      5935      6267         0         0         0         0         0         0         0         0         0         0         0         0         0         0 
dram[2]:      6608      6939         0         0         0         0         0         0         0         0         0         0         0         0         0         0 
dram[3]:      7275      7604         0         0         0         0         0         0         0         0         0         0         0         0         0         0 
dram[4]:     14310     14642         0         0         0         0         0         0         0         0         0         0         0         0         0         0 
dram[5]:     14965     15295         0         0         0         0         0         0         0         0         0         0         0         0         0         0 
dram[6]:     15638      7913         0         0         0         0         0         0         0         0         0         0         0         0         0         0 
dram[7]:      8215      8533         0         0         0         0         0         0         0         0         0         0         0         0         0         0 
dram[8]:      8883      9205         0         0         0         0         0         0         0         0         0         0         0         0         0         0 
dram[9]:      9534      9877         0         0         0         0         0         0         0         0         0         0         0         0         0         0 
dram[10]:      7583      7894         0         0         0         0         0         0         0         0         0         0         0         0         0         0 
dram[11]:      8238      8599         0         0         0         0         0         0         0         0         0         0         0         0         0         0 
dram[12]:      8920      9251         0         0         0         0         0         0         0         0         0         0         0         0         0         0 
dram[13]:      9611      9953         0         0         0         0         0         0         0         0         0         0         0         0         0         0 
dram[14]:     10311     10640         0     17952         0         0         0         0         0         0         0         0         0         0         0         0 
dram[15]:     10987     11315     18261         0         0         0         0         0         0         0         0         0         0         0         0         0 
average row accesses per activate:
dram[0]:  8.000000  8.000000      -nan      -nan      -nan      -nan      -nan      -nan      -nan      -nan      -nan      -nan      -nan      -nan      -nan      -nan 
dram[1]:  8.000000  8.000000      -nan      -nan      -nan      -nan      -nan      -nan      -nan      -nan      -nan      -nan      -nan      -nan      -nan      -nan 
dram[2]:  8.000000  8.000000      -nan      -nan      -nan      -nan      -nan      -nan      -nan      -nan      -nan      -nan      -nan      -nan      -nan      -nan 
dram[3]:  8.000000  8.000000      -nan      -nan      -nan      -nan      -nan      -nan      -nan      -nan      -nan      -nan      -nan      -nan      -nan      -nan 
dram[4]:  4.000000  4.000000      -nan      -nan      -nan      -nan      -nan      -nan      -nan      -nan      -nan      -nan      -nan      -nan      -nan      -nan 
dram[5]:  4.000000  4.000000      -nan      -nan      -nan      -nan      -nan      -nan      -nan      -nan      -nan      -nan      -nan      -nan      -nan      -nan 
dram[6]:  4.000000  8.000000      -nan      -nan      -nan      -nan      -nan      -nan      -nan      -nan      -nan      -nan      -nan      -nan      -nan      -nan 
dram[7]:  8.000000  8.000000      -nan      -nan      -nan      -nan      -nan      -nan      -nan      -nan      -nan      -nan      -nan      -nan      -nan      -nan 
dram[8]:  8.000000  8.000000      -nan      -nan      -nan      -nan      -nan      -nan      -nan      -nan      -nan      -nan      -nan      -nan      -nan      -nan 
dram[9]:  8.000000  4.000000      -nan      -nan      -nan      -nan      -nan      -nan      -nan      -nan      -nan      -nan      -nan      -nan      -nan      -nan 
dram[10]:  4.000000  4.000000      -nan      -nan      -nan      -nan      -nan      -nan      -nan      -nan      -nan      -nan      -nan      -nan      -nan      -nan 
dram[11]:  4.000000  4.000000      -nan      -nan      -nan      -nan      -nan      -nan      -nan      -nan      -nan      -nan      -nan      -nan      -nan      -nan 
dram[12]:  4.000000  4.000000      -nan      -nan      -nan      -nan      -nan      -nan      -nan      -nan      -nan      -nan      -nan      -nan      -nan      -nan 
dram[13]:  4.000000  4.000000      -nan      -nan      -nan      -nan      -nan      -nan      -nan      -nan      -nan      -nan      -nan      -nan      -nan      -nan 
dram[14]:  4.000000  4.000000      -nan  4.000000      -nan      -nan      -nan      -nan      -nan      -nan      -nan      -nan      -nan      -nan      -nan      -nan 
dram[15]:  4.000000  4.000000  4.000000      -nan      -nan      -nan      -nan      -nan      -nan      -nan      -nan      -nan      -nan      -nan      -nan      -nan 
average row locality = 192/34 = 5.647059
number of total memory accesses made:
dram[0]:         0         0         0         0         0         0         0         0         0         0         0         0         0         0         0         0 
dram[1]:         0         0         0         0         0         0         0         0         0         0         0         0         0         0         0         0 
dram[2]:         0         0         0         0         0         0         0         0         0         0         0         0         0         0         0         0 
dram[3]:         0         0         0         0         0         0         0         0         0         0         0         0         0         0         0         0 
dram[4]:         0         0         0         0         0         0         0         0         0         0         0         0         0         0         0         0 
dram[5]:         0         0         0         0         0         0         0         0         0         0         0         0         0         0         0         0 
dram[6]:         0         0         0         0         0         0         0         0         0         0         0         0         0         0         0         0 
dram[7]:         0         0         0         0         0         0         0         0         0         0         0         0         0         0         0         0 
dram[8]:         0         0         0         0         0         0         0         0         0         0         0         0         0         0         0         0 
dram[9]:         0         0         0         0         0         0         0         0         0         0         0         0         0         0         0         0 
dram[10]:         0         0         0         0         0         0         0         0         0         0         0         0         0         0         0         0 
dram[11]:         0         0         0         0         0         0         0         0         0         0         0         0         0         0         0         0 
dram[12]:         0         0         0         0         0         0         0         0         0         0         0         0         0         0         0         0 
dram[13]:         0         0         0         0         0         0         0         0         0         0         0         0         0         0         0         0 
dram[14]:         0         0         0         0         0         0         0         0         0         0         0         0         0         0         0         0 
dram[15]:         0         0         0         0         0         0         0         0         0         0         0         0         0         0         0         0 
total accesses: 0
min_bank_accesses = 0!
min_chip_accesses = 0!
number of total read accesses:
dram[0]:         8         8         0         0         0         0         0         0         0         0         0         0         0         0         0         0 
dram[1]:         8         8         0         0         0         0         0         0         0         0         0         0         0         0         0         0 
dram[2]:         8         8         0         0         0         0         0         0         0         0         0         0         0         0         0         0 
dram[3]:         8         8         0         0         0         0         0         0         0         0         0         0         0         0         0         0 
dram[4]:         4         4         0         0         0         0         0         0         0         0         0         0         0         0         0         0 
dram[5]:         4         4         0         0         0         0         0         0         0         0         0         0         0         0         0         0 
dram[6]:         4         8         0         0         0         0         0         0         0         0         0         0         0         0         0         0 
dram[7]:         8         8         0         0         0         0         0         0         0         0         0         0         0         0         0         0 
dram[8]:         8         8         0         0         0         0         0         0         0         0         0         0         0         0         0         0 
dram[9]:         8         4         0         0         0         0         0         0         0         0         0         0         0         0         0         0 
dram[10]:         4         4         0         0         0         0         0         0         0         0         0         0         0         0         0         0 
dram[11]:         4         4         0         0         0         0         0         0         0         0         0         0         0         0         0         0 
dram[12]:         4         4         0         0         0         0         0         0         0         0         0         0         0         0         0         0 
dram[13]:         4         4         0         0         0         0         0         0         0         0         0         0         0         0         0         0 
dram[14]:         4         4         0         4         0         0         0         0         0         0         0         0         0         0         0         0 
dram[15]:         4         4         4         0         0         0         0         0         0         0         0         0         0         0         0         0 
total dram reads = 192
min_bank_accesses = 0!
chip skew: 16/8 = 2.00
number of total write accesses:
dram[0]:         0         0         0         0         0         0         0         0         0         0         0         0         0         0         0         0 
dram[1]:         0         0         0         0         0         0         0         0         0         0         0         0         0         0         0         0 
dram[2]:         0         0         0         0         0         0         0         0         0         0         0         0         0         0         0         0 
dram[3]:         0         0         0         0         0         0         0         0         0         0         0         0         0         0         0         0 
dram[4]:         0         0         0         0         0         0         0         0         0         0         0         0         0         0         0         0 
dram[5]:         0         0         0         0         0         0         0         0         0         0         0         0         0         0         0         0 
dram[6]:         0         0         0         0         0         0         0         0         0         0         0         0         0         0         0         0 
dram[7]:         0         0         0         0         0         0         0         0         0         0         0         0         0         0         0         0 
dram[8]:         0         0         0         0         0         0         0         0         0         0         0         0         0         0         0         0 
dram[9]:         0         0         0         0         0         0         0         0         0         0         0         0         0         0         0         0 
dram[10]:         0         0         0         0         0         0         0         0         0         0         0         0         0         0         0         0 
dram[11]:         0         0         0         0         0         0         0         0         0         0         0         0         0         0         0         0 
dram[12]:         0         0         0         0         0         0         0         0         0         0         0         0         0         0         0         0 
dram[13]:         0         0         0         0         0         0         0         0         0         0         0         0         0         0         0         0 
dram[14]:         0         0         0         0         0         0         0         0         0         0         0         0         0         0         0         0 
dram[15]:         0         0         0         0         0         0         0         0         0         0         0         0         0         0         0         0 
total dram writes = 0
min_bank_accesses = 0!
min_chip_accesses = 0!
average mf latency per bank:
dram[0]:       4789      4198    none      none      none      none      none      none      none      none      none      none      none      none      none      none  
dram[1]:       4598      4732    none      none      none      none      none      none      none      none      none      none      none      none      none      none  
dram[2]:       3999      4571    none      none      none      none      none      none      none      none      none      none      none      none      none      none  
dram[3]:       4301      4867    none      none      none      none      none      none      none      none      none      none      none      none      none      none  
dram[4]:       9914      9282    none      none      none      none      none      none      none      none      none      none      none      none      none      none  
dram[5]:       7722      9372    none      none      none      none      none      none      none      none      none      none      none      none      none      none  
dram[6]:       9188      4736    none      none      none      none      none      none      none      none      none      none      none      none      none      none  
dram[7]:       5451      4442    none      none      none      none      none      none      none      none      none      none      none      none      none      none  
dram[8]:       4431      5196    none      none      none      none      none      none      none      none      none      none      none      none      none      none  
dram[9]:       4543      9370    none      none      none      none      none      none      none      none      none      none      none      none      none      none  
dram[10]:       9032      8251    none      none      none      none      none      none      none      none      none      none      none      none      none      none  
dram[11]:       9278      9537    none      none      none      none      none      none      none      none      none      none      none      none      none      none  
dram[12]:       7475      8296    none      none      none      none      none      none      none      none      none      none      none      none      none      none  
dram[13]:       9030      7657    none      none      none      none      none      none      none      none      none      none      none      none      none      none  
dram[14]:       8756      9070    none        9286    none      none      none      none      none      none      none      none      none      none      none      none  
dram[15]:       8258      9849      9081    none      none      none      none      none      none      none      none      none      none      none      none      none  
maximum mf latency per bank:
dram[0]:        348       356       352       362       332       362       326       345       311       326       353       356       346       330       347       342
dram[1]:        394       445       392       457       420       443       407       344       437       384       417       444       437       416       450       460
dram[2]:        384       323       414       325       315       298       323       317       334       310       402       308       416       295       363       293
dram[3]:        313       467       335       464       311       437       334       445       303       451       316       456       303       433       333       418
dram[4]:        327       457       336       457       335       465       308       463       307       377       351       469       339       458       341       406
dram[5]:        312       348       319       354       321       374       311       313       322       337       307       317       297       348       336       338
dram[6]:        485       351       460       330       470       335       455       286       444       327       439       325       430       322       475       335
dram[7]:        406       360       387       307       424       340       365       326       380       318       456       345       475       302       445       314
dram[8]:        366       432       374       405       354       446       354       450       369       463       369       413       332       447       335       455
dram[9]:        475       396       450       376       458       355       431       344       443       346       480       351       486       376       480       356
dram[10]:        315       344       321       360       306       323       313       317       283       315       322       328       305       328       311       331
dram[11]:        335       301       338       313       338       311       325       292       293       307       333       320       320       305       332       287
dram[12]:        308       323       339       300       303       289       301       299       291       304       294       322       316       328       296       313
dram[13]:        414       427       465       437       462       409       462       451       411       431       419       429       434       426       454       462
dram[14]:        295       355       355       426       301       383       328       321       342       302       329       376       327       399       343       364
dram[15]:        330       337       366       332       347       313       322       293       341       300       323       340       331       317       321       360
Memory Partition 0: 
Cache L2_bank_000:
MSHR contents

Cache L2_bank_001:
MSHR contents

In Dram Latency Queue (total = 0): 
DRAM[0]: 16 bks, busW=2 BL=16 CL=20, tRRD=10 tCCD=4, tRCD=20 tRAS=50 tRP=20 tRC=62
n_cmd=33942 n_nop=33924 n_act=2 n_pre=0 n_ref_event=0 n_req=16 n_rd=16 n_rd_L2_A=0 n_write=0 n_wr_bk=0 bw_util=0.001886
n_activity=184 dram_eff=0.3478
bk0: 8a 33905i bk1: 8a 33905i bk2: 0a 33941i bk3: 0a 33941i bk4: 0a 33941i bk5: 0a 33942i bk6: 0a 33942i bk7: 0a 33942i bk8: 0a 33942i bk9: 0a 33942i bk10: 0a 33942i bk11: 0a 33942i bk12: 0a 33942i bk13: 0a 33942i bk14: 0a 33942i bk15: 0a 33943i 

------------------------------------------------------------------------

Row_Buffer_Locality = 0.875000
Row_Buffer_Locality_read = 0.875000
Row_Buffer_Locality_write = -nan
Bank_Level_Parallism = 1.000000
Bank_Level_Parallism_Col = 1.000000
Bank_Level_Parallism_Ready = 1.000000
write_to_read_ratio_blp_rw_average = 0.000000
GrpLevelPara = 1.000000 

BW Util details:
bwutil = 0.001886 
total_CMD = 33942 
util_bw = 64 
Wasted_Col = 40 
Wasted_Row = 0 
Idle = 33838 

BW Util Bottlenecks: 
RCDc_limit = 40 
RCDWRc_limit = 0 
WTRc_limit = 0 
RTWc_limit = 0 
CCDLc_limit = 0 
rwq = 0 
CCDLc_limit_alone = 0 
WTRc_limit_alone = 0 
RTWc_limit_alone = 0 

Commands details: 
total_CMD = 33942 
n_nop = 33924 
Read = 16 
Write = 0 
L2_Alloc = 0 
L2_WB = 0 
n_act = 2 
n_pre = 0 
n_ref = 0 
n_req = 16 
total_req = 16 

Dual Bus Interface Util: 
issued_total_row = 2 
issued_total_col = 16 
Row_Bus_Util =  0.000059 
CoL_Bus_Util = 0.000471 
Either_Row_CoL_Bus_Util = 0.000530 
Issued_on_Two_Bus_Simul_Util = 0.000000 
issued_two_Eff = 0.000000 
queue_avg = 0.004213 


dram_util_bins: 0 0 0 0 0 0 0 0 0 0
dram_eff_bins: 0 0 0 0 0 0 0 0 0 0
mrqq: max=3 avg=0.00421307
Memory Partition 1: 
Cache L2_bank_002:
MSHR contents

Cache L2_bank_003:
MSHR contents

In Dram Latency Queue (total = 0): 
DRAM[1]: 16 bks, busW=2 BL=16 CL=20, tRRD=10 tCCD=4, tRCD=20 tRAS=50 tRP=20 tRC=62
n_cmd=33942 n_nop=33924 n_act=2 n_pre=0 n_ref_event=0 n_req=16 n_rd=16 n_rd_L2_A=0 n_write=0 n_wr_bk=0 bw_util=0.001886
n_activity=184 dram_eff=0.3478
bk0: 8a 33905i bk1: 8a 33905i bk2: 0a 33941i bk3: 0a 33941i bk4: 0a 33941i bk5: 0a 33942i bk6: 0a 33942i bk7: 0a 33942i bk8: 0a 33942i bk9: 0a 33942i bk10: 0a 33942i bk11: 0a 33942i bk12: 0a 33942i bk13: 0a 33942i bk14: 0a 33942i bk15: 0a 33943i 

------------------------------------------------------------------------

Row_Buffer_Locality = 0.875000
Row_Buffer_Locality_read = 0.875000
Row_Buffer_Locality_write = -nan
Bank_Level_Parallism = 1.000000
Bank_Level_Parallism_Col = 1.000000
Bank_Level_Parallism_Ready = 1.000000
write_to_read_ratio_blp_rw_average = 0.000000
GrpLevelPara = 1.000000 

BW Util details:
bwutil = 0.001886 
total_CMD = 33942 
util_bw = 64 
Wasted_Col = 40 
Wasted_Row = 0 
Idle = 33838 

BW Util Bottlenecks: 
RCDc_limit = 40 
RCDWRc_limit = 0 
WTRc_limit = 0 
RTWc_limit = 0 
CCDLc_limit = 0 
rwq = 0 
CCDLc_limit_alone = 0 
WTRc_limit_alone = 0 
RTWc_limit_alone = 0 

Commands details: 
total_CMD = 33942 
n_nop = 33924 
Read = 16 
Write = 0 
L2_Alloc = 0 
L2_WB = 0 
n_act = 2 
n_pre = 0 
n_ref = 0 
n_req = 16 
total_req = 16 

Dual Bus Interface Util: 
issued_total_row = 2 
issued_total_col = 16 
Row_Bus_Util =  0.000059 
CoL_Bus_Util = 0.000471 
Either_Row_CoL_Bus_Util = 0.000530 
Issued_on_Two_Bus_Simul_Util = 0.000000 
issued_two_Eff = 0.000000 
queue_avg = 0.004066 


dram_util_bins: 0 0 0 0 0 0 0 0 0 0
dram_eff_bins: 0 0 0 0 0 0 0 0 0 0
mrqq: max=3 avg=0.00406576
Memory Partition 2: 
Cache L2_bank_004:
MSHR contents

Cache L2_bank_005:
MSHR contents

In Dram Latency Queue (total = 0): 
DRAM[2]: 16 bks, busW=2 BL=16 CL=20, tRRD=10 tCCD=4, tRCD=20 tRAS=50 tRP=20 tRC=62
n_cmd=33942 n_nop=33924 n_act=2 n_pre=0 n_ref_event=0 n_req=16 n_rd=16 n_rd_L2_A=0 n_write=0 n_wr_bk=0 bw_util=0.001886
n_activity=184 dram_eff=0.3478
bk0: 8a 33906i bk1: 8a 33905i bk2: 0a 33941i bk3: 0a 33941i bk4: 0a 33941i bk5: 0a 33942i bk6: 0a 33942i bk7: 0a 33942i bk8: 0a 33942i bk9: 0a 33942i bk10: 0a 33942i bk11: 0a 33942i bk12: 0a 33942i bk13: 0a 33942i bk14: 0a 33942i bk15: 0a 33943i 

------------------------------------------------------------------------

Row_Buffer_Locality = 0.875000
Row_Buffer_Locality_read = 0.875000
Row_Buffer_Locality_write = -nan
Bank_Level_Parallism = 1.000000
Bank_Level_Parallism_Col = 1.000000
Bank_Level_Parallism_Ready = 1.000000
write_to_read_ratio_blp_rw_average = 0.000000
GrpLevelPara = 1.000000 

BW Util details:
bwutil = 0.001886 
total_CMD = 33942 
util_bw = 64 
Wasted_Col = 40 
Wasted_Row = 0 
Idle = 33838 

BW Util Bottlenecks: 
RCDc_limit = 40 
RCDWRc_limit = 0 
WTRc_limit = 0 
RTWc_limit = 0 
CCDLc_limit = 0 
rwq = 0 
CCDLc_limit_alone = 0 
WTRc_limit_alone = 0 
RTWc_limit_alone = 0 

Commands details: 
total_CMD = 33942 
n_nop = 33924 
Read = 16 
Write = 0 
L2_Alloc = 0 
L2_WB = 0 
n_act = 2 
n_pre = 0 
n_ref = 0 
n_req = 16 
total_req = 16 

Dual Bus Interface Util: 
issued_total_row = 2 
issued_total_col = 16 
Row_Bus_Util =  0.000059 
CoL_Bus_Util = 0.000471 
Either_Row_CoL_Bus_Util = 0.000530 
Issued_on_Two_Bus_Simul_Util = 0.000000 
issued_two_Eff = 0.000000 
queue_avg = 0.004154 


dram_util_bins: 0 0 0 0 0 0 0 0 0 0
dram_eff_bins: 0 0 0 0 0 0 0 0 0 0
mrqq: max=3 avg=0.00415415
Memory Partition 3: 
Cache L2_bank_006:
MSHR contents

Cache L2_bank_007:
MSHR contents

In Dram Latency Queue (total = 0): 
DRAM[3]: 16 bks, busW=2 BL=16 CL=20, tRRD=10 tCCD=4, tRCD=20 tRAS=50 tRP=20 tRC=62
n_cmd=33942 n_nop=33924 n_act=2 n_pre=0 n_ref_event=0 n_req=16 n_rd=16 n_rd_L2_A=0 n_write=0 n_wr_bk=0 bw_util=0.001886
n_activity=184 dram_eff=0.3478
bk0: 8a 33905i bk1: 8a 33905i bk2: 0a 33941i bk3: 0a 33941i bk4: 0a 33941i bk5: 0a 33942i bk6: 0a 33942i bk7: 0a 33942i bk8: 0a 33942i bk9: 0a 33942i bk10: 0a 33942i bk11: 0a 33942i bk12: 0a 33942i bk13: 0a 33942i bk14: 0a 33942i bk15: 0a 33943i 

------------------------------------------------------------------------

Row_Buffer_Locality = 0.875000
Row_Buffer_Locality_read = 0.875000
Row_Buffer_Locality_write = -nan
Bank_Level_Parallism = 1.000000
Bank_Level_Parallism_Col = 1.000000
Bank_Level_Parallism_Ready = 1.000000
write_to_read_ratio_blp_rw_average = 0.000000
GrpLevelPara = 1.000000 

BW Util details:
bwutil = 0.001886 
total_CMD = 33942 
util_bw = 64 
Wasted_Col = 40 
Wasted_Row = 0 
Idle = 33838 

BW Util Bottlenecks: 
RCDc_limit = 40 
RCDWRc_limit = 0 
WTRc_limit = 0 
RTWc_limit = 0 
CCDLc_limit = 0 
rwq = 0 
CCDLc_limit_alone = 0 
WTRc_limit_alone = 0 
RTWc_limit_alone = 0 

Commands details: 
total_CMD = 33942 
n_nop = 33924 
Read = 16 
Write = 0 
L2_Alloc = 0 
L2_WB = 0 
n_act = 2 
n_pre = 0 
n_ref = 0 
n_req = 16 
total_req = 16 

Dual Bus Interface Util: 
issued_total_row = 2 
issued_total_col = 16 
Row_Bus_Util =  0.000059 
CoL_Bus_Util = 0.000471 
Either_Row_CoL_Bus_Util = 0.000530 
Issued_on_Two_Bus_Simul_Util = 0.000000 
issued_two_Eff = 0.000000 
queue_avg = 0.004066 


dram_util_bins: 0 0 0 0 0 0 0 0 0 0
dram_eff_bins: 0 0 0 0 0 0 0 0 0 0
mrqq: max=3 avg=0.00406576
Memory Partition 4: 
Cache L2_bank_008:
MSHR contents

Cache L2_bank_009:
MSHR contents

In Dram Latency Queue (total = 0): 
DRAM[4]: 16 bks, busW=2 BL=16 CL=20, tRRD=10 tCCD=4, tRCD=20 tRAS=50 tRP=20 tRC=62
n_cmd=33942 n_nop=33932 n_act=2 n_pre=0 n_ref_event=0 n_req=8 n_rd=8 n_rd_L2_A=0 n_write=0 n_wr_bk=0 bw_util=0.0009428
n_activity=124 dram_eff=0.2581
bk0: 4a 33914i bk1: 4a 33913i bk2: 0a 33941i bk3: 0a 33941i bk4: 0a 33941i bk5: 0a 33942i bk6: 0a 33942i bk7: 0a 33942i bk8: 0a 33942i bk9: 0a 33942i bk10: 0a 33942i bk11: 0a 33942i bk12: 0a 33942i bk13: 0a 33942i bk14: 0a 33942i bk15: 0a 33943i 

------------------------------------------------------------------------

Row_Buffer_Locality = 0.750000
Row_Buffer_Locality_read = 0.750000
Row_Buffer_Locality_write = -nan
Bank_Level_Parallism = 1.000000
Bank_Level_Parallism_Col = 1.000000
Bank_Level_Parallism_Ready = 1.000000
write_to_read_ratio_blp_rw_average = 0.000000
GrpLevelPara = 1.000000 

BW Util details:
bwutil = 0.000943 
total_CMD = 33942 
util_bw = 32 
Wasted_Col = 40 
Wasted_Row = 0 
Idle = 33870 

BW Util Bottlenecks: 
RCDc_limit = 40 
RCDWRc_limit = 0 
WTRc_limit = 0 
RTWc_limit = 0 
CCDLc_limit = 0 
rwq = 0 
CCDLc_limit_alone = 0 
WTRc_limit_alone = 0 
RTWc_limit_alone = 0 

Commands details: 
total_CMD = 33942 
n_nop = 33932 
Read = 8 
Write = 0 
L2_Alloc = 0 
L2_WB = 0 
n_act = 2 
n_pre = 0 
n_ref = 0 
n_req = 8 
total_req = 8 

Dual Bus Interface Util: 
issued_total_row = 2 
issued_total_col = 8 
Row_Bus_Util =  0.000059 
CoL_Bus_Util = 0.000236 
Either_Row_CoL_Bus_Util = 0.000295 
Issued_on_Two_Bus_Simul_Util = 0.000000 
issued_two_Eff = 0.000000 
queue_avg = 0.003742 


dram_util_bins: 0 0 0 0 0 0 0 0 0 0
dram_eff_bins: 0 0 0 0 0 0 0 0 0 0
mrqq: max=3 avg=0.00374168
Memory Partition 5: 
Cache L2_bank_010:
MSHR contents

Cache L2_bank_011:
MSHR contents

In Dram Latency Queue (total = 0): 
DRAM[5]: 16 bks, busW=2 BL=16 CL=20, tRRD=10 tCCD=4, tRCD=20 tRAS=50 tRP=20 tRC=62
n_cmd=33942 n_nop=33932 n_act=2 n_pre=0 n_ref_event=0 n_req=8 n_rd=8 n_rd_L2_A=0 n_write=0 n_wr_bk=0 bw_util=0.0009428
n_activity=124 dram_eff=0.2581
bk0: 4a 33914i bk1: 4a 33913i bk2: 0a 33941i bk3: 0a 33941i bk4: 0a 33941i bk5: 0a 33942i bk6: 0a 33942i bk7: 0a 33942i bk8: 0a 33942i bk9: 0a 33942i bk10: 0a 33942i bk11: 0a 33942i bk12: 0a 33942i bk13: 0a 33942i bk14: 0a 33942i bk15: 0a 33943i 

------------------------------------------------------------------------

Row_Buffer_Locality = 0.750000
Row_Buffer_Locality_read = 0.750000
Row_Buffer_Locality_write = -nan
Bank_Level_Parallism = 1.000000
Bank_Level_Parallism_Col = 1.000000
Bank_Level_Parallism_Ready = 1.000000
write_to_read_ratio_blp_rw_average = 0.000000
GrpLevelPara = 1.000000 

BW Util details:
bwutil = 0.000943 
total_CMD = 33942 
util_bw = 32 
Wasted_Col = 40 
Wasted_Row = 0 
Idle = 33870 

BW Util Bottlenecks: 
RCDc_limit = 40 
RCDWRc_limit = 0 
WTRc_limit = 0 
RTWc_limit = 0 
CCDLc_limit = 0 
rwq = 0 
CCDLc_limit_alone = 0 
WTRc_limit_alone = 0 
RTWc_limit_alone = 0 

Commands details: 
total_CMD = 33942 
n_nop = 33932 
Read = 8 
Write = 0 
L2_Alloc = 0 
L2_WB = 0 
n_act = 2 
n_pre = 0 
n_ref = 0 
n_req = 8 
total_req = 8 

Dual Bus Interface Util: 
issued_total_row = 2 
issued_total_col = 8 
Row_Bus_Util =  0.000059 
CoL_Bus_Util = 0.000236 
Either_Row_CoL_Bus_Util = 0.000295 
Issued_on_Two_Bus_Simul_Util = 0.000000 
issued_two_Eff = 0.000000 
queue_avg = 0.003860 


dram_util_bins: 0 0 0 0 0 0 0 0 0 0
dram_eff_bins: 0 0 0 0 0 0 0 0 0 0
mrqq: max=3 avg=0.00385953
Memory Partition 6: 
Cache L2_bank_012:
MSHR contents

Cache L2_bank_013:
MSHR contents

In Dram Latency Queue (total = 0): 
DRAM[6]: 16 bks, busW=2 BL=16 CL=20, tRRD=10 tCCD=4, tRCD=20 tRAS=50 tRP=20 tRC=62
n_cmd=33942 n_nop=33928 n_act=2 n_pre=0 n_ref_event=0 n_req=12 n_rd=12 n_rd_L2_A=0 n_write=0 n_wr_bk=0 bw_util=0.001414
n_activity=154 dram_eff=0.3117
bk0: 4a 33913i bk1: 8a 33904i bk2: 0a 33940i bk3: 0a 33941i bk4: 0a 33941i bk5: 0a 33941i bk6: 0a 33942i bk7: 0a 33942i bk8: 0a 33942i bk9: 0a 33942i bk10: 0a 33942i bk11: 0a 33942i bk12: 0a 33943i bk13: 0a 33943i bk14: 0a 33943i bk15: 0a 33943i 

------------------------------------------------------------------------

Row_Buffer_Locality = 0.833333
Row_Buffer_Locality_read = 0.833333
Row_Buffer_Locality_write = -nan
Bank_Level_Parallism = 1.000000
Bank_Level_Parallism_Col = 1.000000
Bank_Level_Parallism_Ready = 1.000000
write_to_read_ratio_blp_rw_average = 0.000000
GrpLevelPara = 1.000000 

BW Util details:
bwutil = 0.001414 
total_CMD = 33942 
util_bw = 48 
Wasted_Col = 40 
Wasted_Row = 0 
Idle = 33854 

BW Util Bottlenecks: 
RCDc_limit = 40 
RCDWRc_limit = 0 
WTRc_limit = 0 
RTWc_limit = 0 
CCDLc_limit = 0 
rwq = 0 
CCDLc_limit_alone = 0 
WTRc_limit_alone = 0 
RTWc_limit_alone = 0 

Commands details: 
total_CMD = 33942 
n_nop = 33928 
Read = 12 
Write = 0 
L2_Alloc = 0 
L2_WB = 0 
n_act = 2 
n_pre = 0 
n_ref = 0 
n_req = 12 
total_req = 12 

Dual Bus Interface Util: 
issued_total_row = 2 
issued_total_col = 12 
[...]
Row_Buffer_Locality_read = 0.750000
Row_Buffer_Locality_write = -nan
Bank_Level_Parallism = 1.000000
Bank_Level_Parallism_Col = 1.000000
Bank_Level_Parallism_Ready = 1.000000
write_to_read_ratio_blp_rw_average = 0.000000
GrpLevelPara = 1.000000 

BW Util details:
bwutil = 0.000943 
total_CMD = 33942 
util_bw = 32 
Wasted_Col = 40 
Wasted_Row = 0 
Idle = 33870 

BW Util Bottlenecks: 
RCDc_limit = 40 
RCDWRc_limit = 0 
WTRc_limit = 0 
RTWc_limit = 0 
CCDLc_limit = 0 
rwq = 0 
CCDLc_limit_alone = 0 
WTRc_limit_alone = 0 
RTWc_limit_alone = 0 

Commands details: 
total_CMD = 33942 
n_nop = 33932 
Read = 8 
Write = 0 
L2_Alloc = 0 
L2_WB = 0 
n_act = 2 
n_pre = 0 
n_ref = 0 
n_req = 8 
total_req = 8 

Dual Bus Interface Util: 
issued_total_row = 2 
issued_total_col = 8 
Row_Bus_Util =  0.000059 
CoL_Bus_Util = 0.000236 
Either_Row_CoL_Bus_Util = 0.000295 
Issued_on_Two_Bus_Simul_Util = 0.000000 
issued_two_Eff = 0.000000 
queue_avg = 0.003712 


dram_util_bins: 0 0 0 0 0 0 0 0 0 0
dram_eff_bins: 0 0 0 0 0 0 0 0 0 0
mrqq: max=3 avg=0.00371221
Memory Partition 13: 
Cache L2_bank_026:
MSHR contents

Cache L2_bank_027:
MSHR contents

In Dram Latency Queue (total = 0): 
DRAM[13]: 16 bks, busW=2 BL=16 CL=20, tRRD=10 tCCD=4, tRCD=20 tRAS=50 tRP=20 tRC=62
n_cmd=33942 n_nop=33932 n_act=2 n_pre=0 n_ref_event=0 n_req=8 n_rd=8 n_rd_L2_A=0 n_write=0 n_wr_bk=0 bw_util=0.0009428
n_activity=124 dram_eff=0.2581
bk0: 4a 33914i bk1: 4a 33913i bk2: 0a 33941i bk3: 0a 33941i bk4: 0a 33941i bk5: 0a 33942i bk6: 0a 33942i bk7: 0a 33942i bk8: 0a 33942i bk9: 0a 33942i bk10: 0a 33942i bk11: 0a 33942i bk12: 0a 33942i bk13: 0a 33942i bk14: 0a 33942i bk15: 0a 33943i 

------------------------------------------------------------------------

Row_Buffer_Locality = 0.750000
Row_Buffer_Locality_read = 0.750000
Row_Buffer_Locality_write = -nan
Bank_Level_Parallism = 1.000000
Bank_Level_Parallism_Col = 1.000000
Bank_Level_Parallism_Ready = 1.000000
write_to_read_ratio_blp_rw_average = 0.000000
GrpLevelPara = 1.000000 

BW Util details:
bwutil = 0.000943 
total_CMD = 33942 
util_bw = 32 
Wasted_Col = 40 
Wasted_Row = 0 
Idle = 33870 

BW Util Bottlenecks: 
RCDc_limit = 40 
RCDWRc_limit = 0 
WTRc_limit = 0 
RTWc_limit = 0 
CCDLc_limit = 0 
rwq = 0 
CCDLc_limit_alone = 0 
WTRc_limit_alone = 0 
RTWc_limit_alone = 0 

Commands details: 
total_CMD = 33942 
n_nop = 33932 
Read = 8 
Write = 0 
L2_Alloc = 0 
L2_WB = 0 
n_act = 2 
n_pre = 0 
n_ref = 0 
n_req = 8 
total_req = 8 

Dual Bus Interface Util: 
issued_total_row = 2 
issued_total_col = 8 
Row_Bus_Util =  0.000059 
CoL_Bus_Util = 0.000236 
Either_Row_CoL_Bus_Util = 0.000295 
Issued_on_Two_Bus_Simul_Util = 0.000000 
issued_two_Eff = 0.000000 
queue_avg = 0.003771 


dram_util_bins: 0 0 0 0 0 0 0 0 0 0
dram_eff_bins: 0 0 0 0 0 0 0 0 0 0
mrqq: max=3 avg=0.00377114
Memory Partition 14: 
Cache L2_bank_028:
MSHR contents

Cache L2_bank_029:
MSHR contents

In Dram Latency Queue (total = 0): 
DRAM[14]: 16 bks, busW=2 BL=16 CL=20, tRRD=10 tCCD=4, tRCD=20 tRAS=50 tRP=20 tRC=62
n_cmd=33942 n_nop=33927 n_act=3 n_pre=0 n_ref_event=0 n_req=12 n_rd=12 n_rd_L2_A=0 n_write=0 n_wr_bk=0 bw_util=0.001414
n_activity=186 dram_eff=0.2581
bk0: 4a 33914i bk1: 4a 33913i bk2: 0a 33942i bk3: 4a 33912i bk4: 0a 33940i bk5: 0a 33941i bk6: 0a 33942i bk7: 0a 33942i bk8: 0a 33942i bk9: 0a 33942i bk10: 0a 33942i bk11: 0a 33942i bk12: 0a 33942i bk13: 0a 33942i bk14: 0a 33942i bk15: 0a 33943i 

------------------------------------------------------------------------

Row_Buffer_Locality = 0.750000
Row_Buffer_Locality_read = 0.750000
Row_Buffer_Locality_write = -nan
Bank_Level_Parallism = 1.000000
Bank_Level_Parallism_Col = 1.000000
Bank_Level_Parallism_Ready = 1.000000
write_to_read_ratio_blp_rw_average = 0.000000
GrpLevelPara = 1.000000 

BW Util details:
bwutil = 0.001414 
total_CMD = 33942 
util_bw = 48 
Wasted_Col = 60 
Wasted_Row = 0 
Idle = 33834 

BW Util Bottlenecks: 
RCDc_limit = 60 
RCDWRc_limit = 0 
WTRc_limit = 0 
RTWc_limit = 0 
CCDLc_limit = 0 
rwq = 0 
CCDLc_limit_alone = 0 
WTRc_limit_alone = 0 
RTWc_limit_alone = 0 

Commands details: 
total_CMD = 33942 
n_nop = 33927 
Read = 12 
Write = 0 
L2_Alloc = 0 
L2_WB = 0 
n_act = 3 
n_pre = 0 
n_ref = 0 
n_req = 12 
total_req = 12 

Dual Bus Interface Util: 
issued_total_row = 3 
issued_total_col = 12 
Row_Bus_Util =  0.000088 
CoL_Bus_Util = 0.000354 
Either_Row_CoL_Bus_Util = 0.000442 
Issued_on_Two_Bus_Simul_Util = 0.000000 
issued_two_Eff = 0.000000 
queue_avg = 0.005716 


dram_util_bins: 0 0 0 0 0 0 0 0 0 0
dram_eff_bins: 0 0 0 0 0 0 0 0 0 0
mrqq: max=3 avg=0.00571563
Memory Partition 15: 
Cache L2_bank_030:
MSHR contents

Cache L2_bank_031:
MSHR contents

In Dram Latency Queue (total = 0): 
DRAM[15]: 16 bks, busW=2 BL=16 CL=20, tRRD=10 tCCD=4, tRCD=20 tRAS=50 tRP=20 tRC=62
n_cmd=33942 n_nop=33927 n_act=3 n_pre=0 n_ref_event=0 n_req=12 n_rd=12 n_rd_L2_A=0 n_write=0 n_wr_bk=0 bw_util=0.001414
n_activity=186 dram_eff=0.2581
bk0: 4a 33915i bk1: 4a 33914i bk2: 4a 33912i bk3: 0a 33940i bk4: 0a 33940i bk5: 0a 33941i bk6: 0a 33942i bk7: 0a 33942i bk8: 0a 33942i bk9: 0a 33942i bk10: 0a 33942i bk11: 0a 33942i bk12: 0a 33942i bk13: 0a 33942i bk14: 0a 33942i bk15: 0a 33943i 

------------------------------------------------------------------------

Row_Buffer_Locality = 0.750000
Row_Buffer_Locality_read = 0.750000
Row_Buffer_Locality_write = -nan
Bank_Level_Parallism = 1.000000
Bank_Level_Parallism_Col = 1.000000
Bank_Level_Parallism_Ready = 1.000000
write_to_read_ratio_blp_rw_average = 0.000000
GrpLevelPara = 1.000000 

BW Util details:
bwutil = 0.001414 
total_CMD = 33942 
util_bw = 48 
Wasted_Col = 60 
Wasted_Row = 0 
Idle = 33834 

BW Util Bottlenecks: 
RCDc_limit = 60 
RCDWRc_limit = 0 
WTRc_limit = 0 
RTWc_limit = 0 
CCDLc_limit = 0 
rwq = 0 
CCDLc_limit_alone = 0 
WTRc_limit_alone = 0 
RTWc_limit_alone = 0 

Commands details: 
total_CMD = 33942 
n_nop = 33927 
Read = 12 
Write = 0 
L2_Alloc = 0 
L2_WB = 0 
n_act = 3 
n_pre = 0 
n_ref = 0 
n_req = 12 
total_req = 12 

Dual Bus Interface Util: 
issued_total_row = 3 
issued_total_col = 12 
Row_Bus_Util =  0.000088 
CoL_Bus_Util = 0.000354 
Either_Row_CoL_Bus_Util = 0.000442 
Issued_on_Two_Bus_Simul_Util = 0.000000 
issued_two_Eff = 0.000000 
queue_avg = 0.005627 


dram_util_bins: 0 0 0 0 0 0 0 0 0 0
dram_eff_bins: 0 0 0 0 0 0 0 0 0 0
mrqq: max=3 avg=0.00562725

========= L2 cache stats =========
L2_cache_bank[0]: Access = 1459, Miss = 646, Miss_rate = 0.443, Pending_hits = 24, Reservation_fails = 211
L2_cache_bank[1]: Access = 1499, Miss = 655, Miss_rate = 0.437, Pending_hits = 24, Reservation_fails = 197
L2_cache_bank[2]: Access = 1533, Miss = 652, Miss_rate = 0.425, Pending_hits = 24, Reservation_fails = 202
L2_cache_bank[3]: Access = 1480, Miss = 659, Miss_rate = 0.445, Pending_hits = 24, Reservation_fails = 197
L2_cache_bank[4]: Access = 1533, Miss = 648, Miss_rate = 0.423, Pending_hits = 24, Reservation_fails = 205
L2_cache_bank[5]: Access = 1524, Miss = 650, Miss_rate = 0.427, Pending_hits = 24, Reservation_fails = 199
L2_cache_bank[6]: Access = 1473, Miss = 650, Miss_rate = 0.441, Pending_hits = 24, Reservation_fails = 205
L2_cache_bank[7]: Access = 1515, Miss = 652, Miss_rate = 0.430, Pending_hits = 24, Reservation_fails = 201
L2_cache_bank[8]: Access = 1406, Miss = 650, Miss_rate = 0.462, Pending_hits = 12, Reservation_fails = 102
L2_cache_bank[9]: Access = 1317, Miss = 647, Miss_rate = 0.491, Pending_hits = 12, Reservation_fails = 107
L2_cache_bank[10]: Access = 1380, Miss = 641, Miss_rate = 0.464, Pending_hits = 12, Reservation_fails = 102
L2_cache_bank[11]: Access = 1390, Miss = 643, Miss_rate = 0.463, Pending_hits = 12, Reservation_fails = 108
L2_cache_bank[12]: Access = 1335, Miss = 648, Miss_rate = 0.485, Pending_hits = 12, Reservation_fails = 107
L2_cache_bank[13]: Access = 1516, Miss = 653, Miss_rate = 0.431, Pending_hits = 24, Reservation_fails = 207
L2_cache_bank[14]: Access = 1508, Miss = 652, Miss_rate = 0.432, Pending_hits = 24, Reservation_fails = 200
L2_cache_bank[15]: Access = 1478, Miss = 657, Miss_rate = 0.445, Pending_hits = 24, Reservation_fails = 205
L2_cache_bank[16]: Access = 1526, Miss = 648, Miss_rate = 0.425, Pending_hits = 24, Reservation_fails = 205
L2_cache_bank[17]: Access = 1510, Miss = 656, Miss_rate = 0.434, Pending_hits = 24, Reservation_fails = 204
L2_cache_bank[18]: Access = 1461, Miss = 653, Miss_rate = 0.447, Pending_hits = 24, Reservation_fails = 208
L2_cache_bank[19]: Access = 1394, Miss = 653, Miss_rate = 0.468, Pending_hits = 12, Reservation_fails = 99
L2_cache_bank[20]: Access = 1394, Miss = 641, Miss_rate = 0.460, Pending_hits = 12, Reservation_fails = 98
L2_cache_bank[21]: Access = 1345, Miss = 643, Miss_rate = 0.478, Pending_hits = 12, Reservation_fails = 109
L2_cache_bank[22]: Access = 1382, Miss = 642, Miss_rate = 0.465, Pending_hits = 12, Reservation_fails = 98
L2_cache_bank[23]: Access = 1350, Miss = 642, Miss_rate = 0.476, Pending_hits = 12, Reservation_fails = 103
L2_cache_bank[24]: Access = 1357, Miss = 644, Miss_rate = 0.475, Pending_hits = 12, Reservation_fails = 105
L2_cache_bank[25]: Access = 1377, Miss = 640, Miss_rate = 0.465, Pending_hits = 12, Reservation_fails = 108
L2_cache_bank[26]: Access = 1327, Miss = 633, Miss_rate = 0.477, Pending_hits = 12, Reservation_fails = 112
L2_cache_bank[27]: Access = 1335, Miss = 634, Miss_rate = 0.475, Pending_hits = 12, Reservation_fails = 102
L2_cache_bank[28]: Access = 1404, Miss = 644, Miss_rate = 0.459, Pending_hits = 12, Reservation_fails = 107
L2_cache_bank[29]: Access = 1498, Miss = 648, Miss_rate = 0.433, Pending_hits = 24, Reservation_fails = 204
L2_cache_bank[30]: Access = 1483, Miss = 645, Miss_rate = 0.435, Pending_hits = 24, Reservation_fails = 214
L2_cache_bank[31]: Access = 1380, Miss = 645, Miss_rate = 0.467, Pending_hits = 12, Reservation_fails = 109
L2_total_cache_accesses = 45869
L2_total_cache_misses = 20714
L2_total_cache_miss_rate = 0.4516
L2_total_cache_pending_hits = 576
L2_total_cache_reservation_fails = 4940
L2_total_cache_breakdown:
	L2_cache_stats_breakdown[GLOBAL_ACC_R][HIT] = 18819
	L2_cache_stats_breakdown[GLOBAL_ACC_R][HIT_RESERVED] = 0
	L2_cache_stats_breakdown[GLOBAL_ACC_R][MISS] = 0
	L2_cache_stats_breakdown[GLOBAL_ACC_R][RESERVATION_FAIL] = 0
	L2_cache_stats_breakdown[GLOBAL_ACC_R][SECTOR_MISS] = 0
	L2_cache_stats_breakdown[GLOBAL_ACC_R][MSHR_HIT] = 0
	L2_cache_stats_breakdown[LOCAL_ACC_R][HIT] = 0
	L2_cache_stats_breakdown[LOCAL_ACC_R][HIT_RESERVED] = 0
	L2_cache_stats_breakdown[LOCAL_ACC_R][MISS] = 0
	L2_cache_stats_breakdown[LOCAL_ACC_R][RESERVATION_FAIL] = 0
	L2_cache_stats_breakdown[LOCAL_ACC_R][SECTOR_MISS] = 0
	L2_cache_stats_breakdown[LOCAL_ACC_R][MSHR_HIT] = 0
	L2_cache_stats_breakdown[CONST_ACC_R][HIT] = 0
	L2_cache_stats_breakdown[CONST_ACC_R][HIT_RESERVED] = 0
	L2_cache_stats_breakdown[CONST_ACC_R][MISS] = 0
	L2_cache_stats_breakdown[CONST_ACC_R][RESERVATION_FAIL] = 0
	L2_cache_stats_breakdown[CONST_ACC_R][SECTOR_MISS] = 0
	L2_cache_stats_breakdown[CONST_ACC_R][MSHR_HIT] = 0
	L2_cache_stats_breakdown[TEXTURE_ACC_R][HIT] = 0
	L2_cache_stats_breakdown[TEXTURE_ACC_R][HIT_RESERVED] = 0
	L2_cache_stats_breakdown[TEXTURE_ACC_R][MISS] = 0
	L2_cache_stats_breakdown[TEXTURE_ACC_R][RESERVATION_FAIL] = 0
	L2_cache_stats_breakdown[TEXTURE_ACC_R][SECTOR_MISS] = 0
	L2_cache_stats_breakdown[TEXTURE_ACC_R][MSHR_HIT] = 0
	L2_cache_stats_breakdown[GLOBAL_ACC_W][HIT] = 0
	L2_cache_stats_breakdown[GLOBAL_ACC_W][HIT_RESERVED] = 0
	L2_cache_stats_breakdown[GLOBAL_ACC_W][MISS] = 4248
	L2_cache_stats_breakdown[GLOBAL_ACC_W][RESERVATION_FAIL] = 0
	L2_cache_stats_breakdown[GLOBAL_ACC_W][SECTOR_MISS] = 16274
	L2_cache_stats_breakdown[GLOBAL_ACC_W][MSHR_HIT] = 0
	L2_cache_stats_breakdown[LOCAL_ACC_W][HIT] = 0
	L2_cache_stats_breakdown[LOCAL_ACC_W][HIT_RESERVED] = 0
	L2_cache_stats_breakdown[LOCAL_ACC_W][MISS] = 0
	L2_cache_stats_breakdown[LOCAL_ACC_W][RESERVATION_FAIL] = 0
	L2_cache_stats_breakdown[LOCAL_ACC_W][SECTOR_MISS] = 0
	L2_cache_stats_breakdown[LOCAL_ACC_W][MSHR_HIT] = 0
	L2_cache_stats_breakdown[L1_WRBK_ACC][HIT] = 0
	L2_cache_stats_breakdown[L1_WRBK_ACC][HIT_RESERVED] = 0
	L2_cache_stats_breakdown[L1_WRBK_ACC][MISS] = 0
	L2_cache_stats_breakdown[L1_WRBK_ACC][RESERVATION_FAIL] = 0
	L2_cache_stats_breakdown[L1_WRBK_ACC][SECTOR_MISS] = 0
	L2_cache_stats_breakdown[L1_WRBK_ACC][MSHR_HIT] = 0
	L2_cache_stats_breakdown[L2_WRBK_ACC][HIT] = 0
	L2_cache_stats_breakdown[L2_WRBK_ACC][HIT_RESERVED] = 0
	L2_cache_stats_breakdown[L2_WRBK_ACC][MISS] = 0
	L2_cache_stats_breakdown[L2_WRBK_ACC][RESERVATION_FAIL] = 0
	L2_cache_stats_breakdown[L2_WRBK_ACC][SECTOR_MISS] = 0
	L2_cache_stats_breakdown[L2_WRBK_ACC][MSHR_HIT] = 0
	L2_cache_stats_breakdown[INST_ACC_R][HIT] = 5760
	L2_cache_stats_breakdown[INST_ACC_R][HIT_RESERVED] = 576
	L2_cache_stats_breakdown[INST_ACC_R][MISS] = 48
	L2_cache_stats_breakdown[INST_ACC_R][RESERVATION_FAIL] = 4940
	L2_cache_stats_breakdown[INST_ACC_R][SECTOR_MISS] = 144
	L2_cache_stats_breakdown[INST_ACC_R][MSHR_HIT] = 576
	L2_cache_stats_breakdown[L1_WR_ALLOC_R][HIT] = 0
	L2_cache_stats_breakdown[L1_WR_ALLOC_R][HIT_RESERVED] = 0
	L2_cache_stats_breakdown[L1_WR_ALLOC_R][MISS] = 0
	L2_cache_stats_breakdown[L1_WR_ALLOC_R][RESERVATION_FAIL] = 0
	L2_cache_stats_breakdown[L1_WR_ALLOC_R][SECTOR_MISS] = 0
	L2_cache_stats_breakdown[L1_WR_ALLOC_R][MSHR_HIT] = 0
	L2_cache_stats_breakdown[L2_WR_ALLOC_R][HIT] = 0
	L2_cache_stats_breakdown[L2_WR_ALLOC_R][HIT_RESERVED] = 0
	L2_cache_stats_breakdown[L2_WR_ALLOC_R][MISS] = 0
	L2_cache_stats_breakdown[L2_WR_ALLOC_R][RESERVATION_FAIL] = 0
	L2_cache_stats_breakdown[L2_WR_ALLOC_R][SECTOR_MISS] = 0
	L2_cache_stats_breakdown[L2_WR_ALLOC_R][MSHR_HIT] = 0
	L2_cache_stats_breakdown[GLOBAL_ACC_R][TOTAL_ACCESS] = 18819
	L2_cache_stats_breakdown[GLOBAL_ACC_W][TOTAL_ACCESS] = 20522
	L2_cache_stats_breakdown[INST_ACC_R][TOTAL_ACCESS] = 7104
L2_total_cache_reservation_fail_breakdown:
	L2_cache_stats_fail_breakdown[INST_ACC_R][MSHR_MERGE_ENRTY_FAIL] = 4940
L2_cache_data_port_util = 0.042
L2_cache_fill_port_util = 0.000

icnt_total_pkts_mem_to_simt=45869
icnt_total_pkts_simt_to_mem=40973
LD_mem_lat_dist  0 0 0 0 0 0 0 0 0 0 0 0 0 0 0 0 0 0 0 0 0 0 0 0 0 0 0
ST_mem_lat_dist  0 0 0 0 0 0 0 0 0 0 0 0 0 0 0 0 0 0 0 0 0 0 0 0 0 0 0
----------------------------Interconnect-DETAILS--------------------------------
Req_Network_injected_packets_num = 40973
Req_Network_cycles = 18475
Req_Network_injected_packets_per_cycle =       2.2178 
Req_Network_conflicts_per_cycle =       0.6115
Req_Network_conflicts_per_cycle_util =       2.1122
Req_Bank_Level_Parallism =       7.6599
Req_Network_in_buffer_full_per_cycle =       0.0000
Req_Network_in_buffer_avg_util =       0.6459
Req_Network_out_buffer_full_per_cycle =       0.0000
Req_Network_out_buffer_avg_util =       0.1541

Reply_Network_injected_packets_num = 45869
Reply_Network_cycles = 18475
Reply_Network_injected_packets_per_cycle =        2.4828
Reply_Network_conflicts_per_cycle =        2.6947
Reply_Network_conflicts_per_cycle_util =       5.6663
Reply_Bank_Level_Parallism =       5.2207
Reply_Network_in_buffer_full_per_cycle =       0.0000
Reply_Network_in_buffer_avg_util =       1.0191
Reply_Network_out_buffer_full_per_cycle =       0.0000
Reply_Network_out_buffer_avg_util =       0.0730
----------------------------END-of-Interconnect-DETAILS-------------------------


gpgpu_simulation_time = 0 days, 0 hrs, 0 min, 21 sec (21 sec)
gpgpu_simulation_rate = 328605 (inst/sec)
gpgpu_simulation_rate = 879 (cycle/sec)
gpgpu_silicon_slowdown = 2167235x
TOTAL CYCLES TAKEN 18475
tot_inst_exec 251583
ICNT_TO_MEM_count 0 ICNT_TO_MEM_cycles 0
ROP_DELAY_count 0 ROP_DELAY_cycle 0
ICNT_TO_L2_QUEUE_count 0 ICNT_TO_L2_QUEUE_cycles 0
L2_TO_DRAM_QUEUE_count 0 L2_TO_DRAM_QUEUE_cycle 0
DRAM_LATENCY_QUEUE_count 0 DRAM_LATENCY_QUEUE_cycle 0
DRAM_TO_L2_QUEUE_count 0 DRAM_TO_L2_QUEUE_cycle 0
DRAM_L2_FILL_QUEUE_count 0 DRAM_L2_FILL_QUEUE_cycle 0
L2_TO_ICNT_count 0 L2_TO_ICNT_cycle 0
CLUSTER_TO_SHADER_QUEUE_count 39341 CLUSTER_TO_SHADER_QUEUE_cycle 0
ICNT_TO_SHADER_count 39341 ICNT_TO_SHADER_cycles 586668
CLUSTER_TO_SHADER_QUEUE_1_count 45869 CLUSTER_TO_SHADER_QUEUE_1_cycle 3861684
issued_inst_count 251583
SHADER_ICNT_PUSH 39341
mem_inst_issue 19992
comp_inst_issue 231591
mem_data_stall 178343
comp_data_stall 249422
ibuffer_stall 1475186
comp_str_stall 0
mem_str_stall 4497
other_stall1 0
other_stall2 0
other_stall3 0
tot_cycles_exec_all_SM 1822216
mem_data_stall_issue_irr 1049972
comp_data_stall_issue_irr 1998554
ibuffer_stall_issue_irr 8398666
comp_str_stall_issue_irr 758493
mem_str_stall_issue_irr 9637
other_stall_issue_irr1 0
other_stall_issue_irr2 0
other_stall_issue_irr3 0
shared_cycle_count 0
constant_cycle_count 0
texture_cycle_count 0
memory_cycle_count 31659
shared_cycle_cycle 0
constant_cycle_cycle 0
texture_cycle_cycle 0
memory_cycle_cycle 3998161
texture_issue_cycle 0
memory_issue_cycle 275960
pushed_from_shader_icnt_l2_icnt 0
tex_icnt_l2_queue 0
icnt_ROP_queue 0
l2_queue_pop 0
l2_queue_reply 0
l2_dram_push 0
l2_dram_rop 0
l2_icnt_push 0
l2_dram_queue_pop 0
push_in_dram 0
push_from_dram 0
dram_l2_reached 0
icnt_back_to_shader 626082741
reached_shader_from_icnt 648348
reach_tex_from_l2 0
reach_glob_from_icnt 0
reach_L1_from_tex 0
reached_global_from_glob 0
finish_inst 0
ROP_no_push_l2_queue_push 0
ROP_extra_cycles 0
l2_dram_rop_count 0
NO_INST_ISSUE 9889973
opp_for_ooo 37839
opp_for_mem 12334
dram_access_total 0
dram_write_req_total 0
dram_read_req_total 0
NUMBER OF MEM ISSUES 197268
MEMORY STALLS SUM 3907424
l2_cache_bank_access 45869 l2_cache_bank_miss 20714
l2_cache_access 45869 l2_cache_miss 20714
l2_pending 576 l2_res_fail 4940
c_mem_resource_stall 0 s_mem_bk_conf 0 gl_mem_resource_stall 9278 gl_mem_coal_stall 5449 gl_mem_data_port_stall 0
icnt_creat_inj 0
icnt_creat_arrival 0
icnt_inj_arrival 0
icnt_creat_inj_READ_REQUEST 0
icnt_creat_arrival_READ_REQUEST 0
icnt_inj_arrival_READ_REQUEST 0
icnt_creat_inj_WRITE_REQUEST 0
icnt_creat_arrival_WRITE_REQUEST 0
icnt_inj_arrival_WRITE_REQUEST 0
icnt_creat_inj_READ_REPLY 0
icnt_creat_arrival_READ_REPLY 0
icnt_inj_arrival_READ_REPLY 0
icnt_creat_inj_WRITE_REPLY 0
icnt_creat_arrival_WRITE_REPLY 0
icnt_inj_arrival_WRITE_REPLY 0
icnt_mem_total_time_spend_Ishita 0
L2_FINAL_STATS_HERE
L2_cache_access_total_Ishita 45869
L2_cache_access_miss_Ishita 20714
L2_cache_access_pending_Ishita 576
L2_cache_access_resfail_Ishita 9880
DRAM MEM_STATS_HERE
simple_dram_count 0
delay_tot_sum 0
hits_num_total 0
access_num_total 0
hits_read_num_total 0
read_num_total 0
hits_write_num_total 0
write_num_total 0
banks_1time_total 0
banks_acess_total_Ishita 0
banks_time_rw_total 0
banks_access_rw_total_Ishita 0
banks_time_ready_total 0
banks_access_ready_total_Ishita 0
average row locality 0 0 
tot_DRAM_reads 0
tot_DRAM_writes 0
bwutil_total 0
gpu_stall_dramfull_total 4948
gpu_stall_icnt2sh_total 0
icnt2mem_latency_tot 0
icnt2sh_latency_tot 0
n_act_tot 0
n_pre_tot 0
n_req_tot 0
n_wr_tot 0
total_dL1_misses 0
total_dL1_accesses 0
total_dL1_miss_rate 0
L2_total_cache_accesses 45869
L2_total_cache_misses 20714
L2_total_cache_miss_rate 0.45159
L2_total_cache_reservation_fails 4940
L1I_total_cache_accesses 126174
L1I_total_cache_misses 32476
L1I_total_cache_miss_rate 0.257391
L1I_total_cache_pending_hits 0
L1I_total_cache_reservation_fails 0
L1D_total_cache_accesses 51509
L1D_total_cache_misses 42739
L1D_total_cache_miss_rate 0.829738
L1D_total_cache_pending_hits 0
L1C_total_cache_accesses 0
L1C_total_cache_misses 0
NONE L1C_total_cache_miss_rate 0
L1D_total_cache_reservation_fails 36635
L1C_total_cache_pending_hits 0
L1C_total_cache_reservation_fails 0
L1T_total_cache_accesses 0
L1T_total_cache_misses 0
NONE L1T_total_cache_miss_rate 0
L1T_total_cache_pending_hits 0
L1T_total_cache_reservation_fails 0
comp_inst_finish_time -1857225415
mem_inst_finish_time -955058577
ibuffer_flush_count1 0
ibuffer_flush_count2 0
ibuffer_flush_count3 0
replay_flush_count 0
GPGPU-Sim: *** simulation thread exiting ***
GPGPU-Sim: *** exit detected ***
