

        *** GPGPU-Sim Simulator Version 4.2.0  [build gpgpu-sim_git-commit-fc80690a07466c1876745320413ad46fcb9c3275_modified_18.0] ***


GPGPU-Sim: Configuration options:

-save_embedded_ptx                      0 # saves ptx files embedded in binary as <n>.ptx
-keep                                   0 # keep intermediate files created by GPGPU-Sim when interfacing with external programs
-gpgpu_ptx_save_converted_ptxplus                    0 # Saved converted ptxplus to a file
-gpgpu_occupancy_sm_number                   75 # The SM number to pass to ptxas when getting register usage for computing GPU occupancy. This parameter is required in the config.
-ptx_opcode_latency_int      4,13,4,5,145,32 # Opcode latencies for integers <ADD,MAX,MUL,MAD,DIV,SHFL>Default 1,1,19,25,145,32
-ptx_opcode_latency_fp          4,13,4,5,39 # Opcode latencies for single precision floating points <ADD,MAX,MUL,MAD,DIV>Default 1,1,1,1,30
-ptx_opcode_latency_dp         8,19,8,8,330 # Opcode latencies for double precision floating points <ADD,MAX,MUL,MAD,DIV>Default 8,8,8,8,335
-ptx_opcode_latency_sfu                  100 # Opcode latencies for SFU instructionsDefault 8
-ptx_opcode_latency_tesnor                   64 # Opcode latencies for Tensor instructionsDefault 64
-ptx_opcode_initiation_int          2,2,2,2,8,4 # Opcode initiation intervals for integers <ADD,MAX,MUL,MAD,DIV,SHFL>Default 1,1,4,4,32,4
-ptx_opcode_initiation_fp            2,2,2,2,4 # Opcode initiation intervals for single precision floating points <ADD,MAX,MUL,MAD,DIV>Default 1,1,1,1,5
-ptx_opcode_initiation_dp          4,4,4,4,130 # Opcode initiation intervals for double precision floating points <ADD,MAX,MUL,MAD,DIV>Default 8,8,8,8,130
-ptx_opcode_initiation_sfu                    8 # Opcode initiation intervals for sfu instructionsDefault 8
-ptx_opcode_initiation_tensor                   64 # Opcode initiation intervals for tensor instructionsDefault 64
-cdp_latency         7200,8000,100,12000,1600 # CDP API latency <cudaStreamCreateWithFlags, cudaGetParameterBufferV2_init_perWarp, cudaGetParameterBufferV2_perKernel, cudaLaunchDeviceV2_init_perWarp, cudaLaunchDevicV2_perKernel>Default 7200,8000,100,12000,1600
-network_mode                           2 # Interconnection network mode
-inter_config_file                   mesh # Interconnection network config file
-icnt_in_buffer_limit                  512 # in_buffer_limit
-icnt_out_buffer_limit                  512 # out_buffer_limit
-icnt_subnets                           2 # subnets
-icnt_arbiter_algo                      1 # arbiter_algo
-icnt_verbose                           0 # inct_verbose
-icnt_grant_cycles                      1 # grant_cycles
-gpgpu_ptx_use_cuobjdump                    1 # Use cuobjdump to extract ptx and sass from binaries
-gpgpu_experimental_lib_support                    0 # Try to extract code from cuda libraries [Broken because of unknown cudaGetExportTable]
-checkpoint_option                      0 #  checkpointing flag (0 = no checkpoint)
-checkpoint_kernel                      1 #  checkpointing during execution of which kernel (1- 1st kernel)
-checkpoint_CTA                         0 #  checkpointing after # of CTA (< less than total CTA)
-resume_option                          0 #  resume flag (0 = no resume)
-resume_kernel                          0 #  Resume from which kernel (1= 1st kernel)
-resume_CTA                             0 #  resume from which CTA 
-checkpoint_CTA_t                       0 #  resume from which CTA 
-checkpoint_insn_Y                      0 #  resume from which CTA 
-gpgpu_ptx_convert_to_ptxplus                    0 # Convert SASS (native ISA) to ptxplus and run ptxplus
-gpgpu_ptx_force_max_capability                   75 # Force maximum compute capability
-gpgpu_ptx_inst_debug_to_file                    0 # Dump executed instructions' debug information to file
-gpgpu_ptx_inst_debug_file       inst_debug.txt # Executed instructions' debug output file
-gpgpu_ptx_inst_debug_thread_uid                    1 # Thread UID for executed instructions' debug output
-gpgpu_simd_model                       1 # 1 = post-dominator
-gpgpu_shader_core_pipeline              1024:32 # shader core pipeline config, i.e., {<nthread>:<warpsize>}
-gpgpu_tex_cache:l1  N:4:128:256,L:R:m:N:L,T:512:8,128:2 # per-shader L1 texture cache  (READ-ONLY) config  {<nsets>:<bsize>:<assoc>,<rep>:<wr>:<alloc>:<wr_alloc>,<mshr>:<N>:<merge>,<mq>:<rf>}
-gpgpu_const_cache:l1 N:128:64:8,L:R:f:N:L,S:2:64,4 # per-shader L1 constant memory cache  (READ-ONLY) config  {<nsets>:<bsize>:<assoc>,<rep>:<wr>:<alloc>:<wr_alloc>,<mshr>:<N>:<merge>,<mq>} 
-gpgpu_cache:il1     N:64:128:16,L:R:f:N:L,S:2:48,4 # shader L1 instruction cache config  {<nsets>:<bsize>:<assoc>,<rep>:<wr>:<alloc>:<wr_alloc>,<mshr>:<N>:<merge>,<mq>} 
-gpgpu_cache:dl1     S:1:128:512,L:L:s:N:L,A:256:8,16:0,32 # per-shader L1 data cache config  {<nsets>:<bsize>:<assoc>,<rep>:<wr>:<alloc>:<wr_alloc>,<mshr>:<N>:<merge>,<mq> | none}
-gpgpu_l1_banks                         4 # The number of L1 cache banks
-gpgpu_l1_banks_byte_interleaving                   32 # l1 banks byte interleaving granularity
-gpgpu_l1_banks_hashing_function                    0 # l1 banks hashing function
-gpgpu_l1_latency                      20 # L1 Hit Latency
-gpgpu_smem_latency                    20 # smem Latency
-gpgpu_cache:dl1PrefL1                 none # per-shader L1 data cache config  {<nsets>:<bsize>:<assoc>,<rep>:<wr>:<alloc>:<wr_alloc>,<mshr>:<N>:<merge>,<mq> | none}
-gpgpu_cache:dl1PrefShared                 none # per-shader L1 data cache config  {<nsets>:<bsize>:<assoc>,<rep>:<wr>:<alloc>:<wr_alloc>,<mshr>:<N>:<merge>,<mq> | none}
-gpgpu_gmem_skip_L1D                    0 # global memory access skip L1D cache (implements -Xptxas -dlcm=cg, default=no skip)
-gpgpu_perfect_mem                      0 # enable perfect memory mode (no cache miss)
-gpgpu_perfect_mem_data                    0 # no wait for data on scoreboard
-gpgpu_write_sched_order                    0 # write order in which warps were executed in file
-gpgpu_follow_defined_sched_order                    0 # follow sched order written in file
-gpgpu_print_stall_data                    0 # Print verbose stall data per cycle
-gpgpu_print_cout_statements                    0 # Print verbose stall data per cycle
-gpgpu_sched_all_warps                    0 # All schedulers see all warps
-gpgpu_reply_buffer                     1 # Replay instructions which could not be executed later
-gpgpu_reply_buffer_seperate_mem_comp                    0 # Replay instructions which could not be executed later
-n_regfile_gating_group                    4 # group of lanes that should be read/written together)
-gpgpu_clock_gated_reg_file                    0 # enable clock gated reg file for power calculations
-gpgpu_clock_gated_lanes                    1 # enable clock gated lanes for power calculations
-gpgpu_shader_registers                65536 # Number of registers per shader core. Limits number of concurrent CTAs. (default 8192)
-gpgpu_registers_per_block                65536 # Maximum number of registers per CTA. (default 8192)
-gpgpu_ignore_resources_limitation                    0 # gpgpu_ignore_resources_limitation (default 0)
-gpgpu_shader_cta                      32 # Maximum number of concurrent CTAs in shader (default 8)
-gpgpu_num_cta_barriers                   16 # Maximum number of named barriers per CTA (default 16)
-gpgpu_n_clusters                      34 # number of processing clusters
-gpgpu_n_cores_per_cluster                    1 # number of simd cores per cluster
-gpgpu_n_cluster_ejection_buffer_size                   32 # number of packets in ejection buffer
-gpgpu_n_ldst_response_buffer_size                    2 # number of response packets in ld/st unit ejection buffer
-gpgpu_shmem_per_block                65536 # Size of shared memory per thread block or CTA (default 48kB)
-gpgpu_shmem_size                   65536 # Size of shared memory per shader core (default 16kB)
-gpgpu_adaptive_cache_config                    0 # adaptive_cache_config
-gpgpu_shmem_sizeDefault                65536 # Size of shared memory per shader core (default 16kB)
-gpgpu_shmem_size_PrefL1                16384 # Size of shared memory per shader core (default 16kB)
-gpgpu_shmem_size_PrefShared                16384 # Size of shared memory per shader core (default 16kB)
-gpgpu_shmem_num_banks                   32 # Number of banks in the shared memory in each shader core (default 16)
-gpgpu_shmem_limited_broadcast                    0 # Limit shared memory to do one broadcast per cycle (default on)
-gpgpu_shmem_warp_parts                    1 # Number of portions a warp is divided into for shared memory bank conflict check 
-gpgpu_mem_unit_ports                    1 # The number of memory transactions allowed per core cycle
-gpgpu_shmem_warp_parts                    1 # Number of portions a warp is divided into for shared memory bank conflict check 
-gpgpu_warpdistro_shader                   -1 # Specify which shader core to collect the warp size distribution from
-gpgpu_warp_issue_shader                    0 # Specify which shader core to collect the warp issue distribution from
-gpgpu_local_mem_map                    1 # Mapping from local memory space address to simulated GPU physical address space (default = enabled)
-gpgpu_num_reg_banks                   16 # Number of register banks (default = 8)
-gpgpu_reg_bank_use_warp_id                    0 # Use warp ID in mapping registers to banks (default = off)
-gpgpu_sub_core_model                    1 # Sub Core Volta/Pascal model (default = off)
-gpgpu_enable_specialized_operand_collector                    0 # enable_specialized_operand_collector
-gpgpu_operand_collector_num_units_sp                    4 # number of collector units (default = 4)
-gpgpu_operand_collector_num_units_dp                    0 # number of collector units (default = 0)
-gpgpu_operand_collector_num_units_sfu                    4 # number of collector units (default = 4)
-gpgpu_operand_collector_num_units_int                    0 # number of collector units (default = 0)
-gpgpu_operand_collector_num_units_tensor_core                    4 # number of collector units (default = 4)
-gpgpu_operand_collector_num_units_mem                    2 # number of collector units (default = 2)
-gpgpu_operand_collector_num_units_gen                    8 # number of collector units (default = 0)
-gpgpu_operand_collector_num_in_ports_sp                    1 # number of collector unit in ports (default = 1)
-gpgpu_operand_collector_num_in_ports_dp                    0 # number of collector unit in ports (default = 0)
-gpgpu_operand_collector_num_in_ports_sfu                    1 # number of collector unit in ports (default = 1)
-gpgpu_operand_collector_num_in_ports_int                    0 # number of collector unit in ports (default = 0)
-gpgpu_operand_collector_num_in_ports_tensor_core                    1 # number of collector unit in ports (default = 1)
-gpgpu_operand_collector_num_in_ports_mem                    1 # number of collector unit in ports (default = 1)
-gpgpu_operand_collector_num_in_ports_gen                    8 # number of collector unit in ports (default = 0)
-gpgpu_operand_collector_num_out_ports_sp                    1 # number of collector unit in ports (default = 1)
-gpgpu_operand_collector_num_out_ports_dp                    0 # number of collector unit in ports (default = 0)
-gpgpu_operand_collector_num_out_ports_sfu                    1 # number of collector unit in ports (default = 1)
-gpgpu_operand_collector_num_out_ports_int                    0 # number of collector unit in ports (default = 0)
-gpgpu_operand_collector_num_out_ports_tensor_core                    1 # number of collector unit in ports (default = 1)
-gpgpu_operand_collector_num_out_ports_mem                    1 # number of collector unit in ports (default = 1)
-gpgpu_operand_collector_num_out_ports_gen                    8 # number of collector unit in ports (default = 0)
-gpgpu_coalesce_arch                   75 # Coalescing arch (GT200 = 13, Fermi = 20)
-gpgpu_num_sched_per_core                    4 # Number of warp schedulers per core
-gpgpu_max_insn_issue_per_warp                    1 # Max number of instructions that can be issued per warp in one cycle by scheduler (either 1 or 2)
-gpgpu_dual_issue_diff_exec_units                    1 # should dual issue use two different execution unit resources (Default = 1)
-gpgpu_simt_core_sim_order                    1 # Select the simulation order of cores in a cluster (0=Fix, 1=Round-Robin)
-gpgpu_pipeline_widths 4,0,4,4,4,4,0,4,4,4,8,4,4 # Pipeline widths ID_OC_SP,ID_OC_DP,ID_OC_INT,ID_OC_SFU,ID_OC_MEM,OC_EX_SP,OC_EX_DP,OC_EX_INT,OC_EX_SFU,OC_EX_MEM,EX_WB,ID_OC_TENSOR_CORE,OC_EX_TENSOR_CORE
-gpgpu_tensor_core_avail                    1 # Tensor Core Available (default=0)
-gpgpu_num_sp_units                     4 # Number of SP units (default=1)
-gpgpu_num_dp_units                     0 # Number of DP units (default=0)
-gpgpu_num_int_units                    4 # Number of INT units (default=0)
-gpgpu_num_sfu_units                    4 # Number of SF units (default=1)
-gpgpu_num_tensor_core_units                    4 # Number of tensor_core units (default=1)
-gpgpu_num_mem_units                    1 # Number if ldst units (default=1) WARNING: not hooked up to anything
-gpgpu_scheduler                     fast # Scheduler configuration: < lrr | gto | two_level_active > If two_level_active:<num_active_warps>:<inner_prioritization>:<outer_prioritization>For complete list of prioritization values see shader.h enum scheduler_prioritization_typeDefault: gto
-gpgpu_concurrent_kernel_sm                    0 # Support concurrent kernels on a SM (default = disabled)
-gpgpu_perfect_inst_const_cache                    0 # perfect inst and const cache mode, so all inst and const hits in the cache(default = disabled)
-gpgpu_perfect_control                    0 # perfect control so that all control hazardsare resolved immediately
-gpgpu_pending_write_ignore                    0 # Ignore Pending Writes
-gpgpu_ignore_synchronization                    0 # Ignores synchronization (CAREFUL: may break execution)
-gpgpu_inst_fetch_throughput                    4 # the number of fetched intruction per warp each cycle
-gpgpu_reg_file_port_throughput                    2 # the number ports of the register file
-specialized_unit_1         1,4,4,4,4,BRA # specialized unit config {<enabled>,<num_units>:<latency>:<initiation>,<ID_OC_SPEC>:<OC_EX_SPEC>,<NAME>}
-specialized_unit_2       1,1,200,4,4,TEX # specialized unit config {<enabled>,<num_units>:<latency>:<initiation>,<ID_OC_SPEC>:<OC_EX_SPEC>,<NAME>}
-specialized_unit_3      1,4,8,4,4,TENSOR # specialized unit config {<enabled>,<num_units>:<latency>:<initiation>,<ID_OC_SPEC>:<OC_EX_SPEC>,<NAME>}
-specialized_unit_4         1,4,4,4,4,UDP # specialized unit config {<enabled>,<num_units>:<latency>:<initiation>,<ID_OC_SPEC>:<OC_EX_SPEC>,<NAME>}
-specialized_unit_5         0,4,4,4,4,BRA # specialized unit config {<enabled>,<num_units>:<latency>:<initiation>,<ID_OC_SPEC>:<OC_EX_SPEC>,<NAME>}
-specialized_unit_6         0,4,4,4,4,BRA # specialized unit config {<enabled>,<num_units>:<latency>:<initiation>,<ID_OC_SPEC>:<OC_EX_SPEC>,<NAME>}
-specialized_unit_7         0,4,4,4,4,BRA # specialized unit config {<enabled>,<num_units>:<latency>:<initiation>,<ID_OC_SPEC>:<OC_EX_SPEC>,<NAME>}
-specialized_unit_8         0,4,4,4,4,BRA # specialized unit config {<enabled>,<num_units>:<latency>:<initiation>,<ID_OC_SPEC>:<OC_EX_SPEC>,<NAME>}
-gpgpu_perf_sim_memcpy                    1 # Fill the L2 cache on memcpy
-gpgpu_simple_dram_model                    0 # simple_dram_model with fixed latency and BW
-gpgpu_dram_scheduler                    1 # 0 = fifo, 1 = FR-FCFS (defaul)
-gpgpu_dram_partition_queues          64:64:64:64 # i2$:$2d:d2$:$2i
-l2_ideal                               0 # Use a ideal L2 cache that always hit
-gpgpu_cache:dl2     S:64:128:16,L:B:m:L:P,A:192:4,32:0,32 # unified banked L2 data cache config  {<nsets>:<bsize>:<assoc>,<rep>:<wr>:<alloc>:<wr_alloc>,<mshr>:<N>:<merge>,<mq>}
-gpgpu_cache:dl2_texture_only                    0 # L2 cache used for texture only
-gpgpu_n_mem                           16 # number of memory modules (e.g. memory controllers) in gpu
-gpgpu_n_sub_partition_per_mchannel                    2 # number of memory subpartition in each memory module
-gpgpu_n_mem_per_ctrlr                    1 # number of memory chips per memory controller
-gpgpu_memlatency_stat                   14 # track and display latency statistics 0x2 enables MC, 0x4 enables queue logs
-gpgpu_frfcfs_dram_sched_queue_size                   64 # 0 = unlimited (default); # entries per chip
-gpgpu_dram_return_queue_size                  192 # 0 = unlimited (default); # entries per chip
-gpgpu_dram_buswidth                    2 # default = 4 bytes (8 bytes per cycle at DDR)
-gpgpu_dram_burst_length                   16 # Burst length of each DRAM request (default = 4 data bus cycle)
-dram_data_command_freq_ratio                    4 # Frequency ratio between DRAM data bus and command bus (default = 2 times, i.e. DDR)
-gpgpu_dram_timing_opt nbk=16:CCD=4:RRD=10:RCD=20:RAS=50:RP=20:RC=62: CL=20:WL=8:CDLR=9:WR=20:nbkgrp=4:CCDL=4:RTPL=4 # DRAM timing parameters = {nbk:tCCD:tRRD:tRCD:tRAS:tRP:tRC:CL:WL:tCDLR:tWR:nbkgrp:tCCDL:tRTPL}
-gpgpu_l2_rop_latency                  160 # ROP queue latency (default 85)
-dram_latency                         100 # DRAM latency (default 30)
-dram_dual_bus_interface                    0 # dual_bus_interface (default = 0) 
-dram_bnk_indexing_policy                    0 # dram_bnk_indexing_policy (0 = normal indexing, 1 = Xoring with the higher bits) (Default = 0)
-dram_bnkgrp_indexing_policy                    1 # dram_bnkgrp_indexing_policy (0 = take higher bits, 1 = take lower bits) (Default = 0)
-dram_seperate_write_queue_enable                    0 # Seperate_Write_Queue_Enable
-dram_write_queue_size             32:28:16 # Write_Queue_Size
-dram_elimnate_rw_turnaround                    0 # elimnate_rw_turnaround i.e set tWTR and tRTW = 0
-icnt_flit_size                        40 # icnt_flit_size
-gpgpu_mem_addr_mapping dramid@8;00000000.00000000.00000000.00000000.0000RRRR.RRRRRRRR.RBBBCCCC.BCCSSSSS # mapping memory address to dram model {dramid@<start bit>;<memory address map>}
-gpgpu_mem_addr_test                    0 # run sweep test to check address mapping for aliased address
-gpgpu_mem_address_mask                    1 # 0 = old addressing mask, 1 = new addressing mask, 2 = new add. mask + flipped bank sel and chip sel bits
-gpgpu_memory_partition_indexing                    0 # 0 = no indexing, 1 = bitwise xoring, 2 = IPoly, 3 = custom indexing
-accelwattch_xml_file accelwattch_ptx_sim.xml # AccelWattch XML file
-power_simulation_enabled                    1 # Turn on power simulator (1=On, 0=Off)
-power_per_cycle_dump                    0 # Dump detailed power output each cycle
-hw_perf_file_name            hw_perf.csv # Hardware Performance Statistics file
-hw_perf_bench_name                       # Kernel Name in Hardware Performance Statistics file
-power_simulation_mode                    0 # Switch performance counter input for power simulation (0=Sim, 1=HW, 2=HW-Sim Hybrid)
-dvfs_enabled                           0 # Turn on DVFS for power model
-aggregate_power_stats                    0 # Accumulate power across all kernels
-accelwattch_hybrid_perfsim_L1_RH                    0 # Get L1 Read Hits for Accelwattch-Hybrid from Accel-Sim
-accelwattch_hybrid_perfsim_L1_RM                    0 # Get L1 Read Misses for Accelwattch-Hybrid from Accel-Sim
-accelwattch_hybrid_perfsim_L1_WH                    0 # Get L1 Write Hits for Accelwattch-Hybrid from Accel-Sim
-accelwattch_hybrid_perfsim_L1_WM                    0 # Get L1 Write Misses for Accelwattch-Hybrid from Accel-Sim
-accelwattch_hybrid_perfsim_L2_RH                    0 # Get L2 Read Hits for Accelwattch-Hybrid from Accel-Sim
-accelwattch_hybrid_perfsim_L2_RM                    0 # Get L2 Read Misses for Accelwattch-Hybrid from Accel-Sim
-accelwattch_hybrid_perfsim_L2_WH                    0 # Get L2 Write Hits for Accelwattch-Hybrid from Accel-Sim
-accelwattch_hybrid_perfsim_L2_WM                    0 # Get L2 Write Misses for Accelwattch-Hybrid from Accel-Sim
-accelwattch_hybrid_perfsim_CC_ACC                    0 # Get Constant Cache Acesses for Accelwattch-Hybrid from Accel-Sim
-accelwattch_hybrid_perfsim_SHARED_ACC                    0 # Get Shared Memory Acesses for Accelwattch-Hybrid from Accel-Sim
-accelwattch_hybrid_perfsim_DRAM_RD                    0 # Get DRAM Reads for Accelwattch-Hybrid from Accel-Sim
-accelwattch_hybrid_perfsim_DRAM_WR                    0 # Get DRAM Writes for Accelwattch-Hybrid from Accel-Sim
-accelwattch_hybrid_perfsim_NOC                    0 # Get Interconnect Acesses for Accelwattch-Hybrid from Accel-Sim
-accelwattch_hybrid_perfsim_PIPE_DUTY                    0 # Get Pipeline Duty Cycle Acesses for Accelwattch-Hybrid from Accel-Sim
-accelwattch_hybrid_perfsim_NUM_SM_IDLE                    0 # Get Number of Idle SMs for Accelwattch-Hybrid from Accel-Sim
-accelwattch_hybrid_perfsim_CYCLES                    0 # Get Executed Cycles for Accelwattch-Hybrid from Accel-Sim
-accelwattch_hybrid_perfsim_VOLTAGE                    0 # Get Chip Voltage for Accelwattch-Hybrid from Accel-Sim
-power_trace_enabled                    0 # produce a file for the power trace (1=On, 0=Off)
-power_trace_zlevel                     6 # Compression level of the power trace output log (0=no comp, 9=highest)
-steady_power_levels_enabled                    0 # produce a file for the steady power levels (1=On, 0=Off)
-steady_state_definition                  8:4 # allowed deviation:number of samples
-gpgpu_max_cycle                        0 # terminates gpu simulation early (0 = no limit)
-gpgpu_max_insn                         0 # terminates gpu simulation early (0 = no limit)
-gpgpu_max_cta                          0 # terminates gpu simulation early (0 = no limit)
-gpgpu_max_completed_cta                    0 # terminates gpu simulation early (0 = no limit)
-gpgpu_runtime_stat                   500 # display runtime statistics such as dram utilization {<freq>:<flag>}
-liveness_message_freq                    1 # Minimum number of seconds between simulation liveness messages (0 = always print)
-gpgpu_compute_capability_major                    7 # Major compute capability version number
-gpgpu_compute_capability_minor                    5 # Minor compute capability version number
-gpgpu_flush_l1_cache                    1 # Flush L1 cache at the end of each kernel call
-gpgpu_flush_l2_cache                    0 # Flush L2 cache at the end of each kernel call
-gpgpu_deadlock_detect                    1 # Stop the simulation at deadlock (1=on (default), 0=off)
-gpgpu_ptx_instruction_classification                    0 # if enabled will classify ptx instruction types per kernel (Max 255 kernels now)
-gpgpu_ptx_sim_mode                     0 # Select between Performance (default) or Functional simulation (1)
-gpgpu_clock_domains 1905.0:1905.0:1905.0:3500.0 # Clock Domain Frequencies in MhZ {<Core Clock>:<ICNT Clock>:<L2 Clock>:<DRAM Clock>}
-gpgpu_max_concurrent_kernel                    8 # maximum kernels that can run concurrently on GPU
-gpgpu_cflog_interval                    0 # Interval between each snapshot in control flow logger
-visualizer_enabled                     0 # Turn on visualizer output (1=On, 0=Off)
-visualizer_outputfile                 NULL # Specifies the output log file for visualizer
-visualizer_zlevel                      6 # Compression level of the visualizer output log (0=no comp, 9=highest)
-gpgpu_stack_size_limit                 1024 # GPU thread stack size
-gpgpu_heap_size_limit              8388608 # GPU malloc heap size 
-gpgpu_runtime_sync_depth_limit                    2 # GPU device runtime synchronize depth
-gpgpu_runtime_pending_launch_count_limit                 2048 # GPU device runtime pending launch count
-trace_enabled                          0 # Turn on traces
-trace_components                    none # comma seperated list of traces to enable. Complete list found in trace_streams.tup. Default none
-trace_sampling_core                    0 # The core which is printed using CORE_DPRINTF. Default 0
-trace_sampling_memory_partition                   -1 # The memory partition which is printed using MEMPART_DPRINTF. Default -1 (i.e. all)
-enable_ptx_file_line_stats                    1 # Turn on PTX source line statistic profiling. (1 = On)
-ptx_line_stats_filename gpgpu_inst_stats.txt # Output file for PTX source line statistics.
-gpgpu_kernel_launch_latency                 5000 # Kernel launch latency in cycles. Default: 0
-gpgpu_cdp_enabled                      0 # Turn on CDP
-gpgpu_TB_launch_latency                    0 # thread block launch latency in cycles. Default: 0
-trace               ../../../../hw_run/rodinia_2.0-ft/11.0/streamcluster-rodinia-2.0-ft/3_6_16_1024_1024_100_none_output_txt_1___data_result_3_6_16_1024_1024_100_none_1_txt/traces/kernelslist.g # traces kernel filetraces kernel file directory
-trace_opcode_latency_initiation_int                  4,2 # Opcode latencies and initiation for integers in trace driven mode <latency,initiation>
-trace_opcode_latency_initiation_sp                  4,2 # Opcode latencies and initiation for sp in trace driven mode <latency,initiation>
-trace_opcode_latency_initiation_dp                  8,4 # Opcode latencies and initiation for dp in trace driven mode <latency,initiation>
-trace_opcode_latency_initiation_sfu                 20,8 # Opcode latencies and initiation for sfu in trace driven mode <latency,initiation>
-trace_opcode_latency_initiation_tensor                  8,4 # Opcode latencies and initiation for tensor in trace driven mode <latency,initiation>
-trace_opcode_latency_initiation_spec_op_1                  4,4 # specialized unit config <latency,initiation>
-trace_opcode_latency_initiation_spec_op_2                200,4 # specialized unit config <latency,initiation>
-trace_opcode_latency_initiation_spec_op_3                  8,4 # specialized unit config <latency,initiation>
-trace_opcode_latency_initiation_spec_op_4                  4,2 # specialized unit config <latency,initiation>
-trace_opcode_latency_initiation_spec_op_5                  4,4 # specialized unit config <latency,initiation>
-trace_opcode_latency_initiation_spec_op_6                  4,4 # specialized unit config <latency,initiation>
-trace_opcode_latency_initiation_spec_op_7                  4,4 # specialized unit config <latency,initiation>
-trace_opcode_latency_initiation_spec_op_8                  4,4 # specialized unit config <latency,initiation>
DRAM Timing Options:
nbk                                    16 # number of banks
CCD                                     4 # column to column delay
RRD                                    10 # minimal delay between activation of rows in different banks
RCD                                    20 # row to column delay
RAS                                    50 # time needed to activate row
RP                                     20 # time needed to precharge (deactivate) row
RC                                     62 # row cycle time
CDLR                                    9 # switching from write to read (changes tWTR)
WR                                     20 # last data-in to row precharge
CL                                     20 # CAS latency
WL                                      8 # Write latency
nbkgrp                                  4 # number of bank groups
CCDL                                    4 # column to column delay between accesses to different bank groups
RTPL                                    4 # read to precharge delay between accesses to different bank groups
Total number of memory sub partition = 32
addr_dec_mask[CHIP]  = 0000000000000f00 	high:12 low:8
addr_dec_mask[BK]    = 0000000000070080 	high:19 low:7
addr_dec_mask[ROW]   = 00000000fff80000 	high:32 low:19
addr_dec_mask[COL]   = 000000000000f07f 	high:16 low:0
addr_dec_mask[BURST] = 000000000000001f 	high:5 low:0
sub_partition_id_mask = 0000000000000080
GPGPU-Sim uArch: clock freqs: 1905000000.000000:1905000000.000000:1905000000.000000:3500000000.000000
GPGPU-Sim uArch: clock periods: 0.00000000052493438320:0.00000000052493438320:0.00000000052493438320:0.00000000028571428571
*** Initializing Memory Statistics ***
GPGPU-Sim uArch: performance model initialization complete.
launching memcpy command : MemcpyHtoD,0x00007febe3708000,1024
launching memcpy command : MemcpyHtoD,0x00007febe3710400,65536
launching memcpy command : MemcpyHtoD,0x00007febe3707000,4096
launching memcpy command : MemcpyHtoD,0x00007febe3708400,32768
Processing kernel ../../../../hw_run/rodinia_2.0-ft/11.0/streamcluster-rodinia-2.0-ft/3_6_16_1024_1024_100_none_output_txt_1___data_result_3_6_16_1024_1024_100_none_1_txt/traces/kernel-1.traceg
-kernel name = _Z12pgain_kerneliilP5PointiPfS1_PiPb
-kernel id = 1
-grid dim = (2,1,1)
-block dim = (512,1,1)
-shmem = 64
-nregs = 32
-binary version = 70
-cuda stream id = 0
-shmem base_addr = 0x00007fec18000000
-local mem base_addr = 0x00007fec1a000000
-nvbit version = 1.4
-accelsim tracer version = 3
launching kernel command : ../../../../hw_run/rodinia_2.0-ft/11.0/streamcluster-rodinia-2.0-ft/3_6_16_1024_1024_100_none_output_txt_1___data_result_3_6_16_1024_1024_100_none_1_txt/traces/kernel-1.traceg
GPGPU-Sim uArch: Shader 0 bind to kernel 1 '_Z12pgain_kerneliilP5PointiPfS1_PiPb'
GPGPU-Sim uArch: CTA/core = 2, limited by: threads
thread block = 0,0,0
GPGPU-Sim uArch: Shader 1 bind to kernel 1 '_Z12pgain_kerneliilP5PointiPfS1_PiPb'
thread block = 1,0,0
Destroy streams for kernel 1: size 0
kernel_name = _Z12pgain_kerneliilP5PointiPfS1_PiPb 
kernel_launch_uid = 1 
gpu_sim_cycle = 17746
gpu_sim_insn = 154794
gpu_ipc =       8.7228
gpu_tot_sim_cycle = 17746
gpu_tot_stall_cycle = 6789
tot_cycles_exec_all_SM = 101952
cycles_passed = 17746
gpu_tot_sim_insn = 154794
gpu_tot_ipc =       8.7228
gpu_tot_issued_cta = 2
gpu_occupancy = 49.5061% 
gpu_tot_occupancy = 49.5061% 
max_total_param_size = 0
gpu_stall_dramfull = 0
gpu_stall_icnt2sh    = 0
partiton_level_parallism =       0.2632
partiton_level_parallism_total  =       0.2632
partiton_level_parallism_util =       1.8778
partiton_level_parallism_util_total  =       1.8778
L2_BW  =      16.7841 GB/Sec
L2_BW_total  =      16.7841 GB/Sec
gpu_total_sim_rate=25799

========= Core cache stats =========
L1I_cache:
	L1I_total_cache_accesses = 2682
	L1I_total_cache_misses = 758
	L1I_total_cache_miss_rate = 0.2826
	L1I_total_cache_pending_hits = 0
	L1I_total_cache_reservation_fails = 0
L1D_cache:
	L1D_cache_core[0]: Access = 2954, Miss = 2421, Miss_rate = 0.820, Pending_hits = 0, Reservation_fails = 2885
	L1D_cache_core[1]: Access = 2955, Miss = 2487, Miss_rate = 0.842, Pending_hits = 0, Reservation_fails = 2854
	L1D_cache_core[2]: Access = 0, Miss = 0, Miss_rate = -nan, Pending_hits = 0, Reservation_fails = 0
	L1D_cache_core[3]: Access = 0, Miss = 0, Miss_rate = -nan, Pending_hits = 0, Reservation_fails = 0
	L1D_cache_core[4]: Access = 0, Miss = 0, Miss_rate = -nan, Pending_hits = 0, Reservation_fails = 0
	L1D_cache_core[5]: Access = 0, Miss = 0, Miss_rate = -nan, Pending_hits = 0, Reservation_fails = 0
	L1D_cache_core[6]: Access = 0, Miss = 0, Miss_rate = -nan, Pending_hits = 0, Reservation_fails = 0
	L1D_cache_core[7]: Access = 0, Miss = 0, Miss_rate = -nan, Pending_hits = 0, Reservation_fails = 0
	L1D_cache_core[8]: Access = 0, Miss = 0, Miss_rate = -nan, Pending_hits = 0, Reservation_fails = 0
	L1D_cache_core[9]: Access = 0, Miss = 0, Miss_rate = -nan, Pending_hits = 0, Reservation_fails = 0
	L1D_cache_core[10]: Access = 0, Miss = 0, Miss_rate = -nan, Pending_hits = 0, Reservation_fails = 0
	L1D_cache_core[11]: Access = 0, Miss = 0, Miss_rate = -nan, Pending_hits = 0, Reservation_fails = 0
	L1D_cache_core[12]: Access = 0, Miss = 0, Miss_rate = -nan, Pending_hits = 0, Reservation_fails = 0
	L1D_cache_core[13]: Access = 0, Miss = 0, Miss_rate = -nan, Pending_hits = 0, Reservation_fails = 0
	L1D_cache_core[14]: Access = 0, Miss = 0, Miss_rate = -nan, Pending_hits = 0, Reservation_fails = 0
	L1D_cache_core[15]: Access = 0, Miss = 0, Miss_rate = -nan, Pending_hits = 0, Reservation_fails = 0
	L1D_cache_core[16]: Access = 0, Miss = 0, Miss_rate = -nan, Pending_hits = 0, Reservation_fails = 0
	L1D_cache_core[17]: Access = 0, Miss = 0, Miss_rate = -nan, Pending_hits = 0, Reservation_fails = 0
	L1D_cache_core[18]: Access = 0, Miss = 0, Miss_rate = -nan, Pending_hits = 0, Reservation_fails = 0
	L1D_cache_core[19]: Access = 0, Miss = 0, Miss_rate = -nan, Pending_hits = 0, Reservation_fails = 0
	L1D_cache_core[20]: Access = 0, Miss = 0, Miss_rate = -nan, Pending_hits = 0, Reservation_fails = 0
	L1D_cache_core[21]: Access = 0, Miss = 0, Miss_rate = -nan, Pending_hits = 0, Reservation_fails = 0
	L1D_cache_core[22]: Access = 0, Miss = 0, Miss_rate = -nan, Pending_hits = 0, Reservation_fails = 0
	L1D_cache_core[23]: Access = 0, Miss = 0, Miss_rate = -nan, Pending_hits = 0, Reservation_fails = 0
	L1D_cache_core[24]: Access = 0, Miss = 0, Miss_rate = -nan, Pending_hits = 0, Reservation_fails = 0
	L1D_cache_core[25]: Access = 0, Miss = 0, Miss_rate = -nan, Pending_hits = 0, Reservation_fails = 0
	L1D_cache_core[26]: Access = 0, Miss = 0, Miss_rate = -nan, Pending_hits = 0, Reservation_fails = 0
	L1D_cache_core[27]: Access = 0, Miss = 0, Miss_rate = -nan, Pending_hits = 0, Reservation_fails = 0
	L1D_cache_core[28]: Access = 0, Miss = 0, Miss_rate = -nan, Pending_hits = 0, Reservation_fails = 0
	L1D_cache_core[29]: Access = 0, Miss = 0, Miss_rate = -nan, Pending_hits = 0, Reservation_fails = 0
	L1D_cache_core[30]: Access = 0, Miss = 0, Miss_rate = -nan, Pending_hits = 0, Reservation_fails = 0
	L1D_cache_core[31]: Access = 0, Miss = 0, Miss_rate = -nan, Pending_hits = 0, Reservation_fails = 0
	L1D_cache_core[32]: Access = 0, Miss = 0, Miss_rate = -nan, Pending_hits = 0, Reservation_fails = 0
	L1D_cache_core[33]: Access = 0, Miss = 0, Miss_rate = -nan, Pending_hits = 0, Reservation_fails = 0
	L1D_total_cache_accesses = 5909
	L1D_total_cache_misses = 4908
	L1D_total_cache_miss_rate = 0.8306
	L1D_total_cache_pending_hits = 0
	L1D_total_cache_reservation_fails = 5739
	L1D_cache_data_port_util = 0.039
	L1D_cache_fill_port_util = 0.153
L1C_cache:
	L1C_total_cache_accesses = 0
	L1C_total_cache_misses = 0
	L1C_total_cache_pending_hits = 0
	L1C_total_cache_reservation_fails = 0
L1T_cache:
	L1T_total_cache_accesses = 0
	L1T_total_cache_misses = 0
	L1T_total_cache_pending_hits = 0
	L1T_total_cache_reservation_fails = 0

Total_core_cache_stats:
	Total_core_cache_stats_breakdown[GLOBAL_ACC_R][HIT] = 371
	Total_core_cache_stats_breakdown[GLOBAL_ACC_R][HIT_RESERVED] = 0
	Total_core_cache_stats_breakdown[GLOBAL_ACC_R][MISS] = 3856
	Total_core_cache_stats_breakdown[GLOBAL_ACC_R][RESERVATION_FAIL] = 4855
	Total_core_cache_stats_breakdown[GLOBAL_ACC_R][SECTOR_MISS] = 988
	Total_core_cache_stats_breakdown[GLOBAL_ACC_R][MSHR_HIT] = 940
	Total_core_cache_stats_breakdown[LOCAL_ACC_R][HIT] = 0
	Total_core_cache_stats_breakdown[LOCAL_ACC_R][HIT_RESERVED] = 0
	Total_core_cache_stats_breakdown[LOCAL_ACC_R][MISS] = 0
	Total_core_cache_stats_breakdown[LOCAL_ACC_R][RESERVATION_FAIL] = 0
	Total_core_cache_stats_breakdown[LOCAL_ACC_R][SECTOR_MISS] = 0
	Total_core_cache_stats_breakdown[LOCAL_ACC_R][MSHR_HIT] = 0
	Total_core_cache_stats_breakdown[CONST_ACC_R][HIT] = 0
	Total_core_cache_stats_breakdown[CONST_ACC_R][HIT_RESERVED] = 0
	Total_core_cache_stats_breakdown[CONST_ACC_R][MISS] = 0
	Total_core_cache_stats_breakdown[CONST_ACC_R][RESERVATION_FAIL] = 0
	Total_core_cache_stats_breakdown[CONST_ACC_R][SECTOR_MISS] = 0
	Total_core_cache_stats_breakdown[CONST_ACC_R][MSHR_HIT] = 0
	Total_core_cache_stats_breakdown[TEXTURE_ACC_R][HIT] = 0
	Total_core_cache_stats_breakdown[TEXTURE_ACC_R][HIT_RESERVED] = 0
	Total_core_cache_stats_breakdown[TEXTURE_ACC_R][MISS] = 0
	Total_core_cache_stats_breakdown[TEXTURE_ACC_R][RESERVATION_FAIL] = 0
	Total_core_cache_stats_breakdown[TEXTURE_ACC_R][SECTOR_MISS] = 0
	Total_core_cache_stats_breakdown[TEXTURE_ACC_R][MSHR_HIT] = 0
	Total_core_cache_stats_breakdown[GLOBAL_ACC_W][HIT] = 630
	Total_core_cache_stats_breakdown[GLOBAL_ACC_W][HIT_RESERVED] = 0
	Total_core_cache_stats_breakdown[GLOBAL_ACC_W][MISS] = 64
	Total_core_cache_stats_breakdown[GLOBAL_ACC_W][RESERVATION_FAIL] = 884
	Total_core_cache_stats_breakdown[GLOBAL_ACC_W][SECTOR_MISS] = 0
	Total_core_cache_stats_breakdown[GLOBAL_ACC_W][MSHR_HIT] = 0
	Total_core_cache_stats_breakdown[LOCAL_ACC_W][HIT] = 0
	Total_core_cache_stats_breakdown[LOCAL_ACC_W][HIT_RESERVED] = 0
	Total_core_cache_stats_breakdown[LOCAL_ACC_W][MISS] = 0
	Total_core_cache_stats_breakdown[LOCAL_ACC_W][RESERVATION_FAIL] = 0
	Total_core_cache_stats_breakdown[LOCAL_ACC_W][SECTOR_MISS] = 0
	Total_core_cache_stats_breakdown[LOCAL_ACC_W][MSHR_HIT] = 0
	Total_core_cache_stats_breakdown[L1_WRBK_ACC][HIT] = 0
	Total_core_cache_stats_breakdown[L1_WRBK_ACC][HIT_RESERVED] = 0
	Total_core_cache_stats_breakdown[L1_WRBK_ACC][MISS] = 0
	Total_core_cache_stats_breakdown[L1_WRBK_ACC][RESERVATION_FAIL] = 0
	Total_core_cache_stats_breakdown[L1_WRBK_ACC][SECTOR_MISS] = 0
	Total_core_cache_stats_breakdown[L1_WRBK_ACC][MSHR_HIT] = 0
	Total_core_cache_stats_breakdown[L2_WRBK_ACC][HIT] = 0
	Total_core_cache_stats_breakdown[L2_WRBK_ACC][HIT_RESERVED] = 0
	Total_core_cache_stats_breakdown[L2_WRBK_ACC][MISS] = 0
	Total_core_cache_stats_breakdown[L2_WRBK_ACC][RESERVATION_FAIL] = 0
	Total_core_cache_stats_breakdown[L2_WRBK_ACC][SECTOR_MISS] = 0
	Total_core_cache_stats_breakdown[L2_WRBK_ACC][MSHR_HIT] = 0
	Total_core_cache_stats_breakdown[INST_ACC_R][HIT] = 1924
	Total_core_cache_stats_breakdown[INST_ACC_R][HIT_RESERVED] = 0
	Total_core_cache_stats_breakdown[INST_ACC_R][MISS] = 758
	Total_core_cache_stats_breakdown[INST_ACC_R][RESERVATION_FAIL] = 0
	Total_core_cache_stats_breakdown[INST_ACC_R][SECTOR_MISS] = 0
	Total_core_cache_stats_breakdown[INST_ACC_R][MSHR_HIT] = 686
	Total_core_cache_stats_breakdown[L1_WR_ALLOC_R][HIT] = 0
	Total_core_cache_stats_breakdown[L1_WR_ALLOC_R][HIT_RESERVED] = 0
	Total_core_cache_stats_breakdown[L1_WR_ALLOC_R][MISS] = 0
	Total_core_cache_stats_breakdown[L1_WR_ALLOC_R][RESERVATION_FAIL] = 0
	Total_core_cache_stats_breakdown[L1_WR_ALLOC_R][SECTOR_MISS] = 0
	Total_core_cache_stats_breakdown[L1_WR_ALLOC_R][MSHR_HIT] = 0
	Total_core_cache_stats_breakdown[L2_WR_ALLOC_R][HIT] = 0
	Total_core_cache_stats_breakdown[L2_WR_ALLOC_R][HIT_RESERVED] = 0
	Total_core_cache_stats_breakdown[L2_WR_ALLOC_R][MISS] = 0
	Total_core_cache_stats_breakdown[L2_WR_ALLOC_R][RESERVATION_FAIL] = 0
	Total_core_cache_stats_breakdown[L2_WR_ALLOC_R][SECTOR_MISS] = 0
	Total_core_cache_stats_breakdown[L2_WR_ALLOC_R][MSHR_HIT] = 0
	Total_core_cache_stats_breakdown[GLOBAL_ACC_R][TOTAL_ACCESS] = 6155
	Total_core_cache_stats_breakdown[GLOBAL_ACC_W][TOTAL_ACCESS] = 694
	Total_core_cache_stats_breakdown[INST_ACC_R][TOTAL_ACCESS] = 3368

Total_core_cache_fail_stats:
	Total_core_cache_fail_stats_breakdown[GLOBAL_ACC_R][MISS_QUEUE_FULL] = 4855
	Total_core_cache_fail_stats_breakdown[GLOBAL_ACC_W][MISS_QUEUE_FULL] = 884
ctas_completed 2, Shader 0 warp_id issue ditsribution:
warp_id:
0, 1, 2, 3, 4, 5, 6, 7, 8, 9, 10, 11, 12, 13, 14, 15, 
distro:
252, 162, 162, 162, 162, 162, 162, 162, 162, 162, 162, 162, 162, 162, 162, 162, 
gpgpu_n_tot_thrd_icount = 154794
gpgpu_n_tot_w_icount = 5364
gpgpu_n_stall_shd_mem = 3193
gpgpu_n_mem_read_local = 0
gpgpu_n_mem_write_local = 0
gpgpu_n_mem_read_global = 3904
gpgpu_n_mem_write_global = 694
gpgpu_n_mem_texture = 0
gpgpu_n_mem_const = 0
gpgpu_n_load_insn  = 21128
gpgpu_n_store_insn = 1228
gpgpu_n_shmem_insn = 16416
gpgpu_n_sstarr_insn = 0
gpgpu_n_tex_insn = 0
gpgpu_n_const_mem_insn = 0
gpgpu_n_param_mem_insn = 0
gpgpu_n_shmem_bkconflict = 0
gpgpu_n_cache_bkconflict = 0
gpgpu_n_intrawarp_mshr_merge = 0
gpgpu_n_cmem_portconflict = 0
gpgpu_stall_shd_mem[c_mem][resource_stall] = 0
gpgpu_stall_shd_mem[s_mem][bk_conf] = 0
gpgpu_stall_shd_mem[gl_mem][resource_stall] = 2473
gpgpu_stall_shd_mem[gl_mem][coal_stall] = 720
gpgpu_stall_shd_mem[gl_mem][data_port_stall] = 0
gpu_reg_bank_conflict_stalls = 0
Warp Occupancy Distribution:
Stall:9337	W0_Idle:163836	W0_Scoreboard:20590	W1:174	W2:6	W3:18	W4:12	W5:24	W6:24	W7:36	W8:54	W9:18	W10:0	W11:0	W12:0	W13:0	W14:0	W15:0	W16:0	W17:0	W18:0	W19:0	W20:0	W21:0	W22:0	W23:18	W24:54	W25:36	W26:24	W27:24	W28:12	W29:18	W30:6	W31:4	W32:4636
single_issue_nums: WS0:1476	WS1:1296	WS2:1296	WS3:1296	
dual_issue_nums: WS0:0	WS1:0	WS2:0	WS3:0	
traffic_breakdown_coretomem[GLOBAL_ACC_R] = 31232 {8:3904,}
traffic_breakdown_coretomem[GLOBAL_ACC_W] = 27760 {40:694,}
traffic_breakdown_coretomem[INST_ACC_R] = 576 {8:72,}
traffic_breakdown_memtocore[GLOBAL_ACC_R] = 156160 {40:3904,}
traffic_breakdown_memtocore[GLOBAL_ACC_W] = 5552 {8:694,}
traffic_breakdown_memtocore[INST_ACC_R] = 11520 {40:288,}
ENTERING ACCELSIM HERE
maxmflatency = 430 
max_icnt2mem_latency = 149 
maxmrqlatency = 39 
max_icnt2sh_latency = 54 
averagemflatency = 244 
avg_icnt2mem_latency = 62 
avg_mrq_latency = 2 
avg_icnt2sh_latency = 4 
mrq_lat_table:765 	18 	20 	102 	46 	1 	0 	0 	0 	0 	0 	0 	0 	0 	0 	0 	0 	0 	0 	0 	0 	0 	0 	0 	0 	0 	0 	0 	0 	0 	0 	0 	
dq_lat_table:0 	0 	0 	0 	0 	0 	0 	0 	0 	0 	0 	0 	0 	0 	0 	0 	0 	0 	0 	0 	0 	0 	0 	0 	0 	0 	0 	0 	0 	0 	0 	0 	
mf_lat_table:0 	0 	0 	0 	0 	0 	0 	3304 	1294 	0 	0 	0 	0 	0 	0 	0 	0 	0 	0 	0 	0 	0 	0 	0 	0 	0 	0 	0 	0 	0 	0 	0 	
icnt2mem_lat_table:0 	72 	0 	0 	513 	2505 	1571 	9 	0 	0 	0 	0 	0 	0 	0 	0 	0 	0 	0 	0 	0 	0 	0 	0 	
icnt2sh_lat_table:0 	3318 	828 	348 	91 	13 	0 	0 	0 	0 	0 	0 	0 	0 	0 	0 	0 	0 	0 	0 	0 	0 	0 	0 	
mf_lat_pw_table:0 	0 	0 	0 	0 	0 	0 	9 	3 	0 	0 	0 	0 	0 	0 	0 	0 	0 	0 	0 	0 	0 	0 	0 	0 	0 	0 	0 	0 	0 	0 	0 	
maximum concurrent accesses to same row:
dram[0]:         8         8         0         0         0         1         0         0         0         0         0         0         0         0         0         0 
dram[1]:         4         4         0         1         0         1         0         0         0         0         0         1         0         0         0         0 
dram[2]:         4         8         0         0         0         0         0         0         0         0         1         1         1         0         0         0 
dram[3]:         8         8         0         0         0         0         0         0         0         0         0         1         0         1         0         0 
dram[4]:         8         8         0         0         1         0         0         0         0         1         0         0         0         0         1         0 
dram[5]:         8         4         0         0         0         0         2         0         0         0         0         0         0         0         0         0 
dram[6]:         4         4         0         0         1         0         0         1         0         0         0         1         0         0         0         0 
dram[7]:         4         4         0         0         0         0         0         0         1         0         0         0         0         1         0         0 
dram[8]:         4         1         0         0         0         0         0         0         0         0         0         0         0         0         0         0 
dram[9]:         0         4         0         0         0         0         0         0         0         0         0         1         0         0         1         0 
dram[10]:         8         4         0         0         0         0         0         0         2         0         0         0         0         0         0         0 
dram[11]:         8        20         0         0         0         0         0         1         0         0         0         1         0         0         0         0 
dram[12]:         0         1         0         0         0         0         0         0         0         0         0         0         0         0         0         0 
dram[13]:         0         1         0         0         0         0         0         0         0         0         0         0         1         0         0         1 
dram[14]:         0         4         1         0         0         0         0         0         1         0         0         1         0         0         0         0 
dram[15]:         4         4         0         0         0         0         0         0         0         1         0         0         0         0         0         0 
maximum service time to same row:
dram[0]:     11580     11240         0         0     16542     16038         0         0     16042     16608         0         0         0         0     16286         0 
dram[1]:     11653     12147         0     16028     16065     16053         0         0         0         0         0     16231         0         0         0         0 
dram[2]:     12542     11010         0         0     16031         0     16502     16514     16047     16047     16034     16036     16034     16032     16037     16053 
dram[3]:      9816      9600         0         0         0         0         0     16061     16048     16293     16289     16321         0     16040     16054         0 
dram[4]:     10065      9084         0     16151     16152         0         0         0         0     16469         0     16048     16540         0     16030     16292 
dram[5]:      8994      9071         0         0     16303         0     16220         0     16050     16507         0     16143         0         0     16446     16247 
dram[6]:      8758      8444     16385         0     16047         0     16252     16043         0     16141         0     16295     16607         0         0         0 
dram[7]:      8713      9019     16030         0         0         0         0         0     16067     16063     16289     16232     16287     16050         0         0 
dram[8]:     14710     16051     16053         0     16044         0         0     16501         0         0         0     16042         0         0         0     16250 
dram[9]:     16865     15012         0         0     16057         0     16452     16056     16253     16507     16287     16034         0         0     16072         0 
dram[10]:      9330     16011         0         0         0         0         0         0     16292         0     16511         0         0     16074     16040         0 
dram[11]:     10938      9634         0     16051     16612     16384         0     16059         0     16075     16055     16320         0         0         0         0 
dram[12]:     16835     16055         0     16544         0     16478         0         0         0         0         0     16219     16249         0         0     16066 
dram[13]:     16855     16044         0     16032     16140     16029     16479         0         0     16301         0     16319     16034     16068     16035     16056 
dram[14]:     16853      9951     16049         0     16043         0         0     16040     16035     16040     16448     16286         0         0         0     16142 
dram[15]:     10279     10610     16036     16073     16290         0     16149     16606     16038     16041         0         0         0     16251         0     16305 
average row accesses per activate:
dram[0]: 13.000000 13.000000      -nan      -nan  1.000000  1.000000      -nan      -nan  1.000000  1.000000      -nan      -nan      -nan      -nan  1.000000      -nan 
dram[1]: 12.000000 12.000000      -nan  1.000000  1.000000  1.000000      -nan      -nan      -nan      -nan      -nan  1.000000      -nan      -nan      -nan      -nan 
dram[2]:  8.333333 14.000000      -nan      -nan  1.000000      -nan  1.000000  1.000000  1.000000  2.000000  1.333333  1.000000  1.000000  1.000000  1.000000  1.000000 
dram[3]:  9.666667  9.666667      -nan      -nan      -nan      -nan      -nan  1.000000  1.000000  2.000000  1.000000  1.000000      -nan  1.333333  1.000000      -nan 
dram[4]: 14.000000  7.500000      -nan  1.000000  1.000000      -nan      -nan      -nan      -nan  1.000000      -nan  1.000000  1.000000      -nan  1.000000  1.000000 
dram[5]:  9.666667 11.500000      -nan      -nan  2.000000      -nan  1.500000      -nan  1.000000  1.000000      -nan  1.000000      -nan      -nan  1.000000  2.000000 
dram[6]: 12.000000 12.000000  1.000000      -nan  1.000000      -nan  1.000000  1.000000      -nan  1.000000      -nan  1.000000  1.000000      -nan      -nan      -nan 
dram[7]: 12.000000  5.400000  2.000000      -nan      -nan      -nan      -nan      -nan  1.000000  1.000000  1.000000  1.000000  1.000000  1.000000      -nan      -nan 
dram[8]: 11.500000  7.333333  1.000000      -nan  2.000000      -nan      -nan  1.000000      -nan      -nan      -nan  1.000000      -nan      -nan      -nan  1.000000 
dram[9]: 20.000000  6.500000      -nan      -nan  1.000000      -nan  1.000000  1.000000  1.000000  1.000000  1.000000  1.000000      -nan      -nan  1.000000      -nan 
dram[10]:  9.666667  6.500000      -nan      -nan      -nan      -nan      -nan      -nan  1.500000      -nan  1.000000      -nan      -nan  1.000000  1.000000      -nan 
dram[11]: 13.500000  9.333333      -nan  1.000000  1.000000  1.000000      -nan  1.000000      -nan  1.000000  1.000000  1.000000      -nan      -nan      -nan      -nan 
dram[12]: 20.000000 10.500000      -nan  1.000000      -nan  1.000000      -nan      -nan      -nan      -nan      -nan  1.000000  1.000000      -nan      -nan  1.000000 
dram[13]: 20.000000 10.500000      -nan  1.000000  1.000000  1.000000  1.000000      -nan      -nan  1.000000      -nan  1.000000  1.000000  1.000000  1.000000  1.000000 
dram[14]: 20.000000 11.500000  1.000000      -nan  1.000000      -nan      -nan  1.000000  1.000000  1.000000  2.000000  1.000000      -nan      -nan      -nan  1.000000 
dram[15]: 12.000000 11.500000  1.000000  1.000000  2.000000      -nan  1.000000  1.000000  1.000000  1.000000      -nan      -nan      -nan  1.000000      -nan  1.000000 
average row locality = 952/223 = 4.269058
number of total memory accesses made:
dram[0]:         0         0         0         0         0         0         0         0         0         0         0         0         0         0         0         0 
dram[1]:         0         0         0         0         0         0         0         0         0         0         0         0         0         0         0         0 
dram[2]:         0         0         0         0         0         0         0         0         0         0         0         0         0         0         0         0 
dram[3]:         0         0         0         0         0         0         0         0         0         0         0         0         0         0         0         0 
dram[4]:         0         0         0         0         0         0         0         0         0         0         0         0         0         0         0         0 
dram[5]:         0         0         0         0         0         0         0         0         0         0         0         0         0         0         0         0 
dram[6]:         0         0         0         0         0         0         0         0         0         0         0         0         0         0         0         0 
dram[7]:         0         0         0         0         0         0         0         0         0         0         0         0         0         0         0         0 
dram[8]:         0         0         0         0         0         0         0         0         0         0         0         0         0         0         0         0 
dram[9]:         0         0         0         0         0         0         0         0         0         0         0         0         0         0         0         0 
dram[10]:         0         0         0         0         0         0         0         0         0         0         0         0         0         0         0         0 
dram[11]:         0         0         0         0         0         0         0         0         0         0         0         0         0         0         0         0 
dram[12]:         0         0         0         0         0         0         0         0         0         0         0         0         0         0         0         0 
dram[13]:         0         0         0         0         0         0         0         0         0         0         0         0         0         0         0         0 
dram[14]:         0         0         0         0         0         0         0         0         0         0         0         0         0         0         0         0 
dram[15]:         0         0         0         0         0         0         0         0         0         0         0         0         0         0         0         0 
total accesses: 0
min_bank_accesses = 0!
min_chip_accesses = 0!
number of total read accesses:
dram[0]:        26        26         0         0         1         2         0         0         1         1         0         0         0         0         1         0 
dram[1]:        24        24         0         2         1         3         0         0         0         0         0         2         0         0         0         0 
dram[2]:        25        28         0         0         1         0         1         1         1         2         4         2         2         1         1         1 
dram[3]:        29        29         0         0         0         0         0         1         1         2         1         3         0         4         1         0 
dram[4]:        28        30         0         1         2         0         0         0         0         2         0         1         1         0         2         1 
dram[5]:        29        23         0         0         2         0         3         0         1         1         0         1         0         0         1         2 
dram[6]:        24        24         1         0         2         0         1         2         0         1         0         2         1         0         0         0 
dram[7]:        24        27         2         0         0         0         0         0         2         1         1         1         1         2         0         0 
dram[8]:        23        22         1         0         2         0         0         1         0         0         0         1         0         0         0         1 
dram[9]:        20        26         0         0         1         0         1         1         1         1         1         3         0         0         4         0 
dram[10]:        29        26         0         0         0         0         0         0         3         0         1         0         0         1         1         0 
dram[11]:        27        28         0         1         1         1         0         2         0         1         1         2         0         0         0         0 
dram[12]:        20        21         0         1         0         1         0         0         0         0         0         1         1         0         0         1 
dram[13]:        20        21         0         1         1         1         1         0         0         1         0         1         2         1         1         2 
dram[14]:        20        23         2         0         1         0         0         1         2         1         2         2         0         0         0         1 
dram[15]:        24        23         1         1         2         0         1         1         1         2         0         0         0         1         0         1 
total dram reads = 952
min_bank_accesses = 0!
chip skew: 71/46 = 1.54
number of total write accesses:
dram[0]:         0         0         0         0         0         0         0         0         0         0         0         0         0         0         0         0 
dram[1]:         0         0         0         0         0         0         0         0         0         0         0         0         0         0         0         0 
dram[2]:         0         0         0         0         0         0         0         0         0         0         0         0         0         0         0         0 
dram[3]:         0         0         0         0         0         0         0         0         0         0         0         0         0         0         0         0 
dram[4]:         0         0         0         0         0         0         0         0         0         0         0         0         0         0         0         0 
dram[5]:         0         0         0         0         0         0         0         0         0         0         0         0         0         0         0         0 
dram[6]:         0         0         0         0         0         0         0         0         0         0         0         0         0         0         0         0 
dram[7]:         0         0         0         0         0         0         0         0         0         0         0         0         0         0         0         0 
dram[8]:         0         0         0         0         0         0         0         0         0         0         0         0         0         0         0         0 
dram[9]:         0         0         0         0         0         0         0         0         0         0         0         0         0         0         0         0 
dram[10]:         0         0         0         0         0         0         0         0         0         0         0         0         0         0         0         0 
dram[11]:         0         0         0         0         0         0         0         0         0         0         0         0         0         0         0         0 
dram[12]:         0         0         0         0         0         0         0         0         0         0         0         0         0         0         0         0 
dram[13]:         0         0         0         0         0         0         0         0         0         0         0         0         0         0         0         0 
dram[14]:         0         0         0         0         0         0         0         0         0         0         0         0         0         0         0         0 
dram[15]:         0         0         0         0         0         0         0         0         0         0         0         0         0         0         0         0 
total dram writes = 0
min_bank_accesses = 0!
min_chip_accesses = 0!
average mf latency per bank:
dram[0]:        707       684    none      none        1162       745    none      none         318       314    none      none      none      none         312    none  
dram[1]:        788       801    none        7472      1168       613    none      none      none      none      none         320    none      none      none      none  
dram[2]:        736       671    none      none        1158    none         314       314       318       350       327       329       325       344       345       338
dram[3]:        685       669    none      none      none      none      none         326       320       320       315       322    none         325       325    none  
dram[4]:        677       646    none       14463       324    none      none      none      none         319    none         316       313    none         320       317
dram[5]:        670       795    none      none         315    none         323    none         320       317    none         315    none      none         313       314
dram[6]:        787       789     14715    none         334    none         318       326    none         314    none         322       313    none      none      none  
dram[7]:        759       727      7520    none      none      none      none      none         326       324       318       314       313       325    none      none  
dram[8]:        808       887     14730    none         325    none      none         313    none      none      none         321    none      none      none         317
dram[9]:        938       743    none      none         327    none         317       317       319       318       313       325    none      none         326    none  
dram[10]:        659       736    none      none      none      none      none      none         319    none         314    none      none         328       318    none  
dram[11]:        674       663    none       14437       316       313    none         323    none         323       318       319    none      none      none      none  
dram[12]:        927       912    none       14063    none         313    none      none      none      none      none         313       314    none      none         322
dram[13]:        940       909    none       16598       313       315       313    none      none         313    none         313       324       322       322       322
dram[14]:        936       773      7493    none         332    none      none         319       321       323       316       318    none      none      none         315
dram[15]:        776       794     14574     14811       317    none         314       312       319       323    none      none      none         317    none         314
maximum mf latency per bank:
dram[0]:        401       391       315       263       314       324         0         0       318       314         0         0         0         0       312         0
dram[1]:        387       394       316       331       320       351         0         0         0         0         0       325         0         0         0         0
dram[2]:        389       400       272       260       318       225       314       314       318       352       333       333       328       344       345       338
dram[3]:        430       387       263       261       225       225         0       326       320       322       315       328         0       331       325         0
dram[4]:        392       387       268       315       330         0         0         0         0       325         0       316       313         0       324       317
dram[5]:        390       391       272       272       317         0       339         0       320       317         0       315         0         0       313       316
dram[6]:        390       386       313       261       348         0       318       333         0       314         0       324       313         0         0         0
dram[7]:        388       390       315       266         0         0         0         0       326       324       318       314       313       328         0         0
dram[8]:        385       387       323       267       328         0         0       313         0         0         0       321         0         0         0       317
dram[9]:        382       383       266       268       327         0       317       317       319       318       313       333         0         0       328         0
dram[10]:        385       387       267       263         0         0         0         0       325         0       314         0         0       328       318         0
dram[11]:        389       391       265       316       316       313         0       325         0       323       318       325         0         0         0         0
dram[12]:        384       385       261       314         0       313         0         0         0         0         0       313       314         0         0       322
dram[13]:        387       389       261       337       313       315       313         0         0       313         0       313       332       322       322       323
dram[14]:        391       388       324       307       332         0         0       319       325       323       317       324         0         0         0       315
dram[15]:        390       392       315       323       319         0       314       312       319       325         0         0         0       317         0       314
Memory Partition 0: 
Cache L2_bank_000:
MSHR contents

Cache L2_bank_001:
MSHR contents

In Dram Latency Queue (total = 0): 
DRAM[0]: 16 bks, busW=2 BL=16 CL=20, tRRD=10 tCCD=4, tRCD=20 tRAS=50 tRP=20 tRC=62
n_cmd=32603 n_nop=32532 n_act=10 n_pre=3 n_ref_event=0 n_req=58 n_rd=58 n_rd_L2_A=0 n_write=0 n_wr_bk=0 bw_util=0.007116
n_activity=865 dram_eff=0.2682
bk0: 26a 32489i bk1: 26a 32491i bk2: 0a 32600i bk3: 0a 32603i bk4: 1a 32583i bk5: 2a 32542i bk6: 0a 32598i bk7: 0a 32602i bk8: 1a 32578i bk9: 1a 32580i bk10: 0a 32600i bk11: 0a 32602i bk12: 0a 32603i bk13: 0a 32604i bk14: 1a 32585i bk15: 0a 32606i 

------------------------------------------------------------------------

Row_Buffer_Locality = 0.827586
Row_Buffer_Locality_read = 0.827586
Row_Buffer_Locality_write = -nan
Bank_Level_Parallism = 1.306061
Bank_Level_Parallism_Col = 0.981000
Bank_Level_Parallism_Ready = 1.103448
write_to_read_ratio_blp_rw_average = 0.000000
GrpLevelPara = 0.000000 

BW Util details:
bwutil = 0.007116 
total_CMD = 32603 
util_bw = 232 
Wasted_Col = 160 
Wasted_Row = 22 
Idle = 32189 

BW Util Bottlenecks: 
RCDc_limit = 182 
RCDWRc_limit = 0 
WTRc_limit = 0 
RTWc_limit = 0 
CCDLc_limit = 0 
rwq = 0 
CCDLc_limit_alone = 0 
WTRc_limit_alone = 0 
RTWc_limit_alone = 0 

Commands details: 
total_CMD = 32603 
n_nop = 32532 
Read = 58 
Write = 0 
L2_Alloc = 0 
L2_WB = 0 
n_act = 10 
n_pre = 3 
n_ref = 0 
n_req = 58 
total_req = 58 

Dual Bus Interface Util: 
issued_total_row = 13 
issued_total_col = 58 
Row_Bus_Util =  0.000399 
CoL_Bus_Util = 0.001779 
Either_Row_CoL_Bus_Util = 0.002178 
Issued_on_Two_Bus_Simul_Util = 0.000000 
issued_two_Eff = 0.000000 
queue_avg = 0.010889 


dram_util_bins: 0 0 0 0 0 0 0 0 0 0
dram_eff_bins: 0 0 0 0 0 0 0 0 0 0
mrqq: max=4 avg=0.0108886
Memory Partition 1: 
Cache L2_bank_002:
MSHR contents

Cache L2_bank_003:
MSHR contents

In Dram Latency Queue (total = 0): 
DRAM[1]: 16 bks, busW=2 BL=16 CL=20, tRRD=10 tCCD=4, tRCD=20 tRAS=50 tRP=20 tRC=62
n_cmd=32603 n_nop=32529 n_act=12 n_pre=6 n_ref_event=0 n_req=56 n_rd=56 n_rd_L2_A=0 n_write=0 n_wr_bk=0 bw_util=0.006871
n_activity=898 dram_eff=0.2494
bk0: 24a 32490i bk1: 24a 32502i bk2: 0a 32601i bk3: 2a 32541i bk4: 1a 32580i bk5: 3a 32472i bk6: 0a 32598i bk7: 0a 32603i bk8: 0a 32604i bk9: 0a 32604i bk10: 0a 32604i bk11: 2a 32538i bk12: 0a 32601i bk13: 0a 32603i bk14: 0a 32603i bk15: 0a 32605i 

------------------------------------------------------------------------

Row_Buffer_Locality = 0.785714
Row_Buffer_Locality_read = 0.785714
Row_Buffer_Locality_write = -nan
Bank_Level_Parallism = 1.358209
Bank_Level_Parallism_Col = 1.189274
Bank_Level_Parallism_Ready = 1.107143
write_to_read_ratio_blp_rw_average = 0.000000
GrpLevelPara = 1.189274 

BW Util details:
bwutil = 0.006871 
total_CMD = 32603 
util_bw = 224 
Wasted_Col = 192 
Wasted_Row = 72 
Idle = 32115 

BW Util Bottlenecks: 
RCDc_limit = 220 
RCDWRc_limit = 0 
WTRc_limit = 0 
RTWc_limit = 0 
CCDLc_limit = 0 
rwq = 0 
CCDLc_limit_alone = 0 
WTRc_limit_alone = 0 
RTWc_limit_alone = 0 

Commands details: 
total_CMD = 32603 
n_nop = 32529 
Read = 56 
Write = 0 
L2_Alloc = 0 
L2_WB = 0 
n_act = 12 
n_pre = 6 
n_ref = 0 
n_req = 56 
total_req = 56 

Dual Bus Interface Util: 
issued_total_row = 18 
issued_total_col = 56 
Row_Bus_Util =  0.000552 
CoL_Bus_Util = 0.001718 
Either_Row_CoL_Bus_Util = 0.002270 
Issued_on_Two_Bus_Simul_Util = 0.000000 
issued_two_Eff = 0.000000 
queue_avg = 0.012606 


dram_util_bins: 0 0 0 0 0 0 0 0 0 0
dram_eff_bins: 0 0 0 0 0 0 0 0 0 0
mrqq: max=6 avg=0.0126062
Memory Partition 2: 
Cache L2_bank_004:
MSHR contents

Cache L2_bank_005:
MSHR contents

In Dram Latency Queue (total = 0): 
DRAM[2]: 16 bks, busW=2 BL=16 CL=20, tRRD=10 tCCD=4, tRCD=20 tRAS=50 tRP=20 tRC=62
n_cmd=32603 n_nop=32510 n_act=20 n_pre=7 n_ref_event=0 n_req=70 n_rd=70 n_rd_L2_A=0 n_write=0 n_wr_bk=0 bw_util=0.008588
n_activity=1034 dram_eff=0.2708
bk0: 25a 32459i bk1: 28a 32483i bk2: 0a 32599i bk3: 0a 32602i bk4: 1a 32583i bk5: 0a 32604i bk6: 1a 32585i bk7: 1a 32583i bk8: 1a 32583i bk9: 2a 32530i bk10: 4a 32485i bk11: 2a 32506i bk12: 2a 32526i bk13: 1a 32534i bk14: 1a 32536i bk15: 1a 32556i 

------------------------------------------------------------------------

Row_Buffer_Locality = 0.714286
Row_Buffer_Locality_read = 0.714286
Row_Buffer_Locality_write = -nan
Bank_Level_Parallism = 1.665511
Bank_Level_Parallism_Col = 1.222222
Bank_Level_Parallism_Ready = 1.068493
write_to_read_ratio_blp_rw_average = 0.000000
GrpLevelPara = 1.198257 

BW Util details:
bwutil = 0.008588 
total_CMD = 32603 
util_bw = 280 
Wasted_Col = 271 
Wasted_Row = 101 
Idle = 31951 

BW Util Bottlenecks: 
RCDc_limit = 333 
RCDWRc_limit = 0 
WTRc_limit = 0 
RTWc_limit = 0 
CCDLc_limit = 0 
rwq = 0 
CCDLc_limit_alone = 0 
WTRc_limit_alone = 0 
RTWc_limit_alone = 0 

Commands details: 
total_CMD = 32603 
n_nop = 32510 
Read = 70 
Write = 0 
L2_Alloc = 0 
L2_WB = 0 
n_act = 20 
n_pre = 7 
n_ref = 0 
n_req = 70 
total_req = 70 

Dual Bus Interface Util: 
issued_total_row = 27 
issued_total_col = 70 
Row_Bus_Util =  0.000828 
CoL_Bus_Util = 0.002147 
Either_Row_CoL_Bus_Util = 0.002852 
Issued_on_Two_Bus_Simul_Util = 0.000123 
issued_two_Eff = 0.043011 
queue_avg = 0.014262 


dram_util_bins: 0 0 0 0 0 0 0 0 0 0
dram_eff_bins: 0 0 0 0 0 0 0 0 0 0
mrqq: max=3 avg=0.0142625
Memory Partition 3: 
Cache L2_bank_006:
MSHR contents

Cache L2_bank_007:
MSHR contents

In Dram Latency Queue (total = 0): 
DRAM[3]: 16 bks, busW=2 BL=16 CL=20, tRRD=10 tCCD=4, tRCD=20 tRAS=50 tRP=20 tRC=62
n_cmd=32603 n_nop=32507 n_act=17 n_pre=8 n_ref_event=0 n_req=71 n_rd=71 n_rd_L2_A=0 n_write=0 n_wr_bk=0 bw_util=0.008711
n_activity=1116 dram_eff=0.2545
bk0: 29a 32431i bk1: 29a 32410i bk2: 0a 32596i bk3: 0a 32601i bk4: 0a 32601i bk5: 0a 32603i bk6: 0a 32604i bk7: 1a 32577i bk8: 1a 32584i bk9: 2a 32579i bk10: 1a 32584i bk11: 3a 32502i bk12: 0a 32602i bk13: 4a 32501i bk14: 1a 32571i bk15: 0a 32603i 

------------------------------------------------------------------------

Row_Buffer_Locality = 0.760563
Row_Buffer_Locality_read = 0.760563
Row_Buffer_Locality_write = -nan
Bank_Level_Parallism = 1.330998
Bank_Level_Parallism_Col = 1.226667
Bank_Level_Parallism_Ready = 1.169014
write_to_read_ratio_blp_rw_average = 0.000000
GrpLevelPara = 1.204444 

BW Util details:
bwutil = 0.008711 
total_CMD = 32603 
util_bw = 284 
Wasted_Col = 256 
Wasted_Row = 107 
Idle = 31956 

BW Util Bottlenecks: 
RCDc_limit = 304 
RCDWRc_limit = 0 
WTRc_limit = 0 
RTWc_limit = 0 
CCDLc_limit = 0 
rwq = 0 
CCDLc_limit_alone = 0 
WTRc_limit_alone = 0 
RTWc_limit_alone = 0 

Commands details: 
total_CMD = 32603 
n_nop = 32507 
Read = 71 
Write = 0 
L2_Alloc = 0 
L2_WB = 0 
n_act = 17 
n_pre = 8 
n_ref = 0 
n_req = 71 
total_req = 71 

Dual Bus Interface Util: 
issued_total_row = 25 
issued_total_col = 71 
Row_Bus_Util =  0.000767 
CoL_Bus_Util = 0.002178 
Either_Row_CoL_Bus_Util = 0.002945 
Issued_on_Two_Bus_Simul_Util = 0.000000 
issued_two_Eff = 0.000000 
queue_avg = 0.013250 


dram_util_bins: 0 0 0 0 0 0 0 0 0 0
dram_eff_bins: 0 0 0 0 0 0 0 0 0 0
mrqq: max=6 avg=0.0132503
Memory Partition 4: 
Cache L2_bank_008:
MSHR contents

Cache L2_bank_009:
MSHR contents

In Dram Latency Queue (total = 0): 
DRAM[4]: 16 bks, busW=2 BL=16 CL=20, tRRD=10 tCCD=4, tRCD=20 tRAS=50 tRP=20 tRC=62
n_cmd=32603 n_nop=32512 n_act=16 n_pre=7 n_ref_event=0 n_req=68 n_rd=68 n_rd_L2_A=0 n_write=0 n_wr_bk=0 bw_util=0.008343
n_activity=1057 dram_eff=0.2573
bk0: 28a 32493i bk1: 30a 32403i bk2: 0a 32598i bk3: 1a 32581i bk4: 2a 32526i bk5: 0a 32597i bk6: 0a 32601i bk7: 0a 32601i bk8: 0a 32602i bk9: 2a 32541i bk10: 0a 32601i bk11: 1a 32585i bk12: 1a 32583i bk13: 0a 32603i bk14: 2a 32544i bk15: 1a 32586i 

------------------------------------------------------------------------

Row_Buffer_Locality = 0.764706
Row_Buffer_Locality_read = 0.764706
Row_Buffer_Locality_write = -nan
Bank_Level_Parallism = 1.322581
Bank_Level_Parallism_Col = 1.156250
Bank_Level_Parallism_Ready = 1.073529
write_to_read_ratio_blp_rw_average = 0.000000
GrpLevelPara = 1.156250 

BW Util details:
bwutil = 0.008343 
total_CMD = 32603 
util_bw = 272 
Wasted_Col = 259 
Wasted_Row = 67 
Idle = 32005 

BW Util Bottlenecks: 
RCDc_limit = 295 
RCDWRc_limit = 0 
WTRc_limit = 0 
RTWc_limit = 0 
CCDLc_limit = 0 
rwq = 0 
CCDLc_limit_alone = 0 
WTRc_limit_alone = 0 
RTWc_limit_alone = 0 

Commands details: 
total_CMD = 32603 
n_nop = 32512 
Read = 68 
Write = 0 
L2_Alloc = 0 
L2_WB = 0 
n_act = 16 
n_pre = 7 
n_ref = 0 
n_req = 68 
total_req = 68 

Dual Bus Interface Util: 
issued_total_row = 23 
issued_total_col = 68 
Row_Bus_Util =  0.000705 
CoL_Bus_Util = 0.002086 
Either_Row_CoL_Bus_Util = 0.002791 
Issued_on_Two_Bus_Simul_Util = 0.000000 
issued_two_Eff = 0.000000 
queue_avg = 0.009723 


dram_util_bins: 0 0 0 0 0 0 0 0 0 0
dram_eff_bins: 0 0 0 0 0 0 0 0 0 0
mrqq: max=5 avg=0.00972303
Memory Partition 5: 
Cache L2_bank_010:
MSHR contents

Cache L2_bank_011:
MSHR contents

In Dram Latency Queue (total = 0): 
DRAM[5]: 16 bks, busW=2 BL=16 CL=20, tRRD=10 tCCD=4, tRCD=20 tRAS=50 tRP=20 tRC=62
n_cmd=32603 n_nop=32523 n_act=13 n_pre=4 n_ref_event=0 n_req=63 n_rd=63 n_rd_L2_A=0 n_write=0 n_wr_bk=0 bw_util=0.007729
n_activity=1080 dram_eff=0.2333
bk0: 29a 32443i bk1: 23a 32527i bk2: 0a 32601i bk3: 0a 32603i bk4: 2a 32579i bk5: 0a 32602i bk6: 3a 32512i bk7: 0a 32600i bk8: 1a 32582i bk9: 1a 32581i bk10: 0a 32603i bk11: 1a 32583i bk12: 0a 32602i bk13: 0a 32603i bk14: 1a 32584i bk15: 2a 32581i 

------------------------------------------------------------------------

Row_Buffer_Locality = 0.793651
Row_Buffer_Locality_read = 0.793651
Row_Buffer_Locality_write = -nan
Bank_Level_Parallism = 1.153153
Bank_Level_Parallism_Col = 1.046196
Bank_Level_Parallism_Ready = 1.000000
write_to_read_ratio_blp_rw_average = 0.000000
GrpLevelPara = 1.046196 

BW Util details:
bwutil = 0.007729 
total_CMD = 32603 
util_bw = 252 
Wasted_Col = 235 
Wasted_Row = 62 
Idle = 32054 

BW Util Bottlenecks: 
RCDc_limit = 245 
RCDWRc_limit = 0 
WTRc_limit = 0 
RTWc_limit = 0 
CCDLc_limit = 0 
rwq = 0 
CCDLc_limit_alone = 0 
WTRc_limit_alone = 0 
RTWc_limit_alone = 0 

Commands details: 
total_CMD = 32603 
n_nop = 32523 
Read = 63 
Write = 0 
L2_Alloc = 0 
L2_WB = 0 
n_act = 13 
n_pre = 4 
n_ref = 0 
n_req = 63 
total_req = 63 

Dual Bus Interface Util: 
issued_total_row = 17 
issued_total_col = 63 
Row_Bus_Util =  0.000521 
CoL_Bus_Util = 0.001932 
Either_Row_CoL_Bus_Util = 0.002454 
Issued_on_Two_Bus_Simul_Util = 0.000000 
issued_two_Eff = 0.000000 
queue_avg = 0.008005 


dram_util_bins: 0 0 0 0 0 0 0 0 0 0
dram_eff_bins: 0 0 0 0 0 0 0 0 0 0
mrqq: max=3 avg=0.0080054
Memory Partition 6: 
Cache L2_bank_012:
MSHR contents

Cache L2_bank_013:
MSHR contents

In Dram Latency Queue (total = 0): 
DRAM[6]: 16 bks, busW=2 BL=16 CL=20, tRRD=10 tCCD=4, tRCD=20 tRAS=50 tRP=20 tRC=62
n_cmd=32603 n_nop=32526 n_act=14 n_pre=5 n_ref_event=0 n_req=58 n_rd=58 n_rd_L2_A=0 n_write=0 n_wr_bk=0 bw_util=0.007116
n_activity=1030 dram_eff=0.2252
bk0: 24a 32493i bk1: 24a 32498i bk2: 1a 32582i bk3: 0a 32604i bk4: 2a 32509i bk5: 0a 32601i bk6: 1a 32583i bk7: 2a 32541i bk8: 0a 32600i bk9: 1a 32582i bk10: 0a 32602i bk11: 2a 32542i bk12: 1a 32579i bk13: 0a 32601i bk14: 0a 32603i bk15: 0a 32605i 

------------------------------------------------------------------------

Row_Buffer_Locality = 0.758621
Row_Buffer_Locality_read = 0.758621
Row_Buffer_Locality_write = -nan
Bank_Level_Parallism = 1.328671
Bank_Level_Parallism_Col = 1.156425
Bank_Level_Parallism_Ready = 1.120690
write_to_read_ratio_blp_rw_average = 0.000000
GrpLevelPara = 1.156425 

BW Util details:
bwutil = 0.007116 
total_CMD = 32603 
util_bw = 232 
Wasted_Col = 228 
Wasted_Row = 58 
Idle = 32085 

BW Util Bottlenecks: 
RCDc_limit = 260 
RCDWRc_limit = 0 
WTRc_limit = 0 
RTWc_limit = 0 
CCDLc_limit = 0 
rwq = 0 
CCDLc_limit_alone = 0 
WTRc_limit_alone = 0 
RTWc_limit_alone = 0 

Commands details: 
total_CMD = 32603 
n_nop = 32526 
Read = 58 
Write = 0 
L2_Alloc = 0 
L2_WB = 0 
n_act = 14 
n_pre = 5 
n_ref = 0 
n_req = 58 
total_req = 58 

Dual Bus Interface Util: 
issued_total_row = 19 
issued_total_col = 58 
Row_Bus_Util =  0.000583 
CoL_Bus_Util = 0.001779 
Either_Row_CoL_Bus_Util = 0.002362 
Issued_on_Two_Bus_Simul_Util = 0.000000 
issued_two_Eff = 0.000000 
queue_avg = 0.006318 


dram_util_bins: 0 0 0 0 0 0 0 0 0 0
dram_eff_bins: 0 0 0 0 0 0 0 0 0 0
mrqq: max=3 avg=0.00631844
Memory Partition 7: 
Cache L2_bank_014:
MSHR contents

Cache L2_bank_015:
MSHR contents

In Dram Latency Queue (total = 0): 
DRAM[7]: 16 bks, busW=2 BL=16 CL=20, tRRD=10 tCCD=4, tRCD=20 tRAS=50 tRP=20 tRC=62
n_cmd=32603 n_nop=32519 n_act=16 n_pre=7 n_ref_event=0 n_req=61 n_rd=61 n_rd_L2_A=0 n_write=0 n_wr_bk=0 bw_util=0.007484
n_activity=1019 dram_eff=0.2395
bk0: 24a 32500i bk1: 27a 32355i bk2: 2a 32576i bk3: 0a 32598i bk4: 0a 32600i bk5: 0a 32603i bk6: 0a 32604i bk7: 0a 32605i bk8: 2a 32543i bk9: 1a 32585i bk10: 1a 32577i bk11: 1a 32583i bk12: 1a 32584i bk13: 2a 32536i bk14: 0a 32600i bk15: 0a 32603i 

------------------------------------------------------------------------

Row_Buffer_Locality = 0.737705
Row_Buffer_Locality_read = 0.737705
Row_Buffer_Locality_write = -nan
Bank_Level_Parallism = 1.248077
Bank_Level_Parallism_Col = 1.122807
Bank_Level_Parallism_Ready = 1.081967
write_to_read_ratio_blp_rw_average = 0.000000
GrpLevelPara = 1.090226 

BW Util details:
bwutil = 0.007484 
total_CMD = 32603 
util_bw = 244 
Wasted_Col = 260 
Wasted_Row = 98 
Idle = 32001 

BW Util Bottlenecks: 
RCDc_limit = 289 
RCDWRc_limit = 0 
WTRc_limit = 0 
RTWc_limit = 0 
CCDLc_limit = 0 
rwq = 0 
CCDLc_limit_alone = 0 
WTRc_limit_alone = 0 
RTWc_limit_alone = 0 

Commands details: 
total_CMD = 32603 
n_nop = 32519 
Read = 61 
Write = 0 
L2_Alloc = 0 
L2_WB = 0 
n_act = 16 
n_pre = 7 
n_ref = 0 
n_req = 61 
total_req = 61 

Dual Bus Interface Util: 
issued_total_row = 23 
issued_total_col = 61 
Row_Bus_Util =  0.000705 
CoL_Bus_Util = 0.001871 
Either_Row_CoL_Bus_Util = 0.002576 
Issued_on_Two_Bus_Simul_Util = 0.000000 
issued_two_Eff = 0.000000 
queue_avg = 0.006625 


dram_util_bins: 0 0 0 0 0 0 0 0 0 0
dram_eff_bins: 0 0 0 0 0 0 0 0 0 0
mrqq: max=3 avg=0.00662516
Memory Partition 8: 
Cache L2_bank_016:
MSHR contents

Cache L2_bank_017:
MSHR contents

In Dram Latency Queue (total = 0): 
DRAM[8]: 16 bks, busW=2 BL=16 CL=20, tRRD=10 tCCD=4, tRCD=20 tRAS=50 tRP=20 tRC=62
n_cmd=32603 n_nop=32539 n_act=10 n_pre=3 n_ref_event=0 n_req=51 n_rd=51 n_rd_L2_A=0 n_write=0 n_wr_bk=0 bw_util=0.006257
n_activity=744 dram_eff=0.2742
bk0: 23a 32494i bk1: 22a 32448i bk2: 1a 32568i bk3: 0a 32602i bk4: 2a 32574i bk5: 0a 32602i bk6: 0a 32602i bk7: 1a 32582i bk8: 0a 32601i bk9: 0a 32602i bk10: 0a 32602i bk11: 1a 32583i bk12: 0a 32601i bk13: 0a 32605i bk14: 0a 32605i bk15: 1a 32586i 

------------------------------------------------------------------------

Row_Buffer_Locality = 0.803922
Row_Buffer_Locality_read = 0.803922
Row_Buffer_Locality_write = -nan
Bank_Level_Parallism = 1.365625
Bank_Level_Parallism_Col = 1.250980
Bank_Level_Parallism_Ready = 1.117647
write_to_read_ratio_blp_rw_average = 0.000000
GrpLevelPara = 1.250980 

BW Util details:
bwutil = 0.006257 
total_CMD = 32603 
util_bw = 204 
Wasted_Col = 137 
Wasted_Row = 56 
Idle = 32206 

BW Util Bottlenecks: 
RCDc_limit = 166 
RCDWRc_limit = 0 
WTRc_limit = 0 
RTWc_limit = 0 
CCDLc_limit = 0 
rwq = 0 
CCDLc_limit_alone = 0 
WTRc_limit_alone = 0 
RTWc_limit_alone = 0 

[...]
Bank_Level_Parallism = 1.076108
Bank_Level_Parallism_Col = 1.046942
Bank_Level_Parallism_Ready = 1.025316
write_to_read_ratio_blp_rw_average = 0.000000
GrpLevelPara = 1.046942 

BW Util details:
bwutil = 0.001763 
total_CMD = 179221 
util_bw = 316 
Wasted_Col = 560 
Wasted_Row = 302 
Idle = 178043 

BW Util Bottlenecks: 
RCDc_limit = 583 
RCDWRc_limit = 0 
WTRc_limit = 0 
RTWc_limit = 0 
CCDLc_limit = 0 
rwq = 0 
CCDLc_limit_alone = 0 
WTRc_limit_alone = 0 
RTWc_limit_alone = 0 

Commands details: 
total_CMD = 179221 
n_nop = 179095 
Read = 79 
Write = 0 
L2_Alloc = 0 
L2_WB = 0 
n_act = 30 
n_pre = 17 
n_ref = 0 
n_req = 79 
total_req = 79 

Dual Bus Interface Util: 
issued_total_row = 47 
issued_total_col = 79 
Row_Bus_Util =  0.000262 
CoL_Bus_Util = 0.000441 
Either_Row_CoL_Bus_Util = 0.000703 
Issued_on_Two_Bus_Simul_Util = 0.000000 
issued_two_Eff = 0.000000 
queue_avg = 0.001557 


dram_util_bins: 0 0 0 0 0 0 0 0 0 0
dram_eff_bins: 0 0 0 0 0 0 0 0 0 0
mrqq: max=3 avg=0.00155674
Memory Partition 11: 
Cache L2_bank_022:
MSHR contents

Cache L2_bank_023:
MSHR contents

In Dram Latency Queue (total = 0): 
DRAM[11]: 16 bks, busW=2 BL=16 CL=20, tRRD=10 tCCD=4, tRCD=20 tRAS=50 tRP=20 tRC=62
n_cmd=179221 n_nop=179063 n_act=41 n_pre=25 n_ref_event=0 n_req=92 n_rd=92 n_rd_L2_A=0 n_write=0 n_wr_bk=0 bw_util=0.002053
n_activity=2636 dram_eff=0.1396
bk0: 28a 179065i bk1: 29a 179021i bk2: 5a 179038i bk3: 4a 179076i bk4: 1a 179196i bk5: 4a 179079i bk6: 1a 179199i bk7: 3a 179116i bk8: 3a 179101i bk9: 4a 179076i bk10: 2a 179146i bk11: 2a 179156i bk12: 1a 179196i bk13: 1a 179197i bk14: 3a 179155i bk15: 1a 179201i 

------------------------------------------------------------------------

Row_Buffer_Locality = 0.554348
Row_Buffer_Locality_read = 0.554348
Row_Buffer_Locality_write = -nan
Bank_Level_Parallism = 1.207214
Bank_Level_Parallism_Col = 1.107503
Bank_Level_Parallism_Ready = 1.075269
write_to_read_ratio_blp_rw_average = 0.000000
GrpLevelPara = 1.089586 

BW Util details:
bwutil = 0.002053 
total_CMD = 179221 
util_bw = 368 
Wasted_Col = 718 
Wasted_Row = 369 
Idle = 177766 

BW Util Bottlenecks: 
RCDc_limit = 772 
RCDWRc_limit = 0 
WTRc_limit = 0 
RTWc_limit = 0 
CCDLc_limit = 0 
rwq = 0 
CCDLc_limit_alone = 0 
WTRc_limit_alone = 0 
RTWc_limit_alone = 0 

Commands details: 
total_CMD = 179221 
n_nop = 179063 
Read = 92 
Write = 0 
L2_Alloc = 0 
L2_WB = 0 
n_act = 41 
n_pre = 25 
n_ref = 0 
n_req = 92 
total_req = 92 

Dual Bus Interface Util: 
issued_total_row = 66 
issued_total_col = 92 
Row_Bus_Util =  0.000368 
CoL_Bus_Util = 0.000513 
Either_Row_CoL_Bus_Util = 0.000882 
Issued_on_Two_Bus_Simul_Util = 0.000000 
issued_two_Eff = 0.000000 
queue_avg = 0.003164 


dram_util_bins: 0 0 0 0 0 0 0 0 0 0
dram_eff_bins: 0 0 0 0 0 0 0 0 0 0
mrqq: max=6 avg=0.00316369
Memory Partition 12: 
Cache L2_bank_024:
MSHR contents

Cache L2_bank_025:
MSHR contents

In Dram Latency Queue (total = 0): 
DRAM[12]: 16 bks, busW=2 BL=16 CL=20, tRRD=10 tCCD=4, tRCD=20 tRAS=50 tRP=20 tRC=62
n_cmd=179221 n_nop=179093 n_act=34 n_pre=19 n_ref_event=0 n_req=75 n_rd=75 n_rd_L2_A=0 n_write=0 n_wr_bk=0 bw_util=0.001674
n_activity=2152 dram_eff=0.1394
bk0: 22a 179112i bk1: 25a 178974i bk2: 2a 179150i bk3: 2a 179157i bk4: 0a 179217i bk5: 1a 179200i bk6: 1a 179199i bk7: 1a 179205i bk8: 5a 179080i bk9: 2a 179161i bk10: 3a 179159i bk11: 3a 179120i bk12: 1a 179200i bk13: 4a 179028i bk14: 1a 179198i bk15: 2a 179160i 

------------------------------------------------------------------------

Row_Buffer_Locality = 0.546667
Row_Buffer_Locality_read = 0.546667
Row_Buffer_Locality_write = -nan
Bank_Level_Parallism = 1.198104
Bank_Level_Parallism_Col = 1.076398
Bank_Level_Parallism_Ready = 1.012987
write_to_read_ratio_blp_rw_average = 0.000000
GrpLevelPara = 1.076398 

BW Util details:
bwutil = 0.001674 
total_CMD = 179221 
util_bw = 300 
Wasted_Col = 604 
Wasted_Row = 279 
Idle = 178038 

BW Util Bottlenecks: 
RCDc_limit = 636 
RCDWRc_limit = 0 
WTRc_limit = 0 
RTWc_limit = 0 
CCDLc_limit = 0 
rwq = 0 
CCDLc_limit_alone = 0 
WTRc_limit_alone = 0 
RTWc_limit_alone = 0 

Commands details: 
total_CMD = 179221 
n_nop = 179093 
Read = 75 
Write = 0 
L2_Alloc = 0 
L2_WB = 0 
n_act = 34 
n_pre = 19 
n_ref = 0 
n_req = 75 
total_req = 75 

Dual Bus Interface Util: 
issued_total_row = 53 
issued_total_col = 75 
Row_Bus_Util =  0.000296 
CoL_Bus_Util = 0.000418 
Either_Row_CoL_Bus_Util = 0.000714 
Issued_on_Two_Bus_Simul_Util = 0.000000 
issued_two_Eff = 0.000000 
queue_avg = 0.001919 


dram_util_bins: 0 0 0 0 0 0 0 0 0 0
dram_eff_bins: 0 0 0 0 0 0 0 0 0 0
mrqq: max=6 avg=0.00191942
Memory Partition 13: 
Cache L2_bank_026:
MSHR contents

Cache L2_bank_027:
MSHR contents

In Dram Latency Queue (total = 0): 
DRAM[13]: 16 bks, busW=2 BL=16 CL=20, tRRD=10 tCCD=4, tRCD=20 tRAS=50 tRP=20 tRC=62
n_cmd=179221 n_nop=179079 n_act=40 n_pre=25 n_ref_event=0 n_req=80 n_rd=80 n_rd_L2_A=0 n_write=0 n_wr_bk=0 bw_util=0.001786
n_activity=2276 dram_eff=0.1406
bk0: 21a 179124i bk1: 23a 179073i bk2: 4a 179050i bk3: 1a 179167i bk4: 1a 179204i bk5: 3a 179121i bk6: 2a 179150i bk7: 2a 179154i bk8: 0a 179218i bk9: 3a 179159i bk10: 2a 179161i bk11: 2a 179163i bk12: 10a 178838i bk13: 1a 179190i bk14: 2a 179150i bk15: 3a 179118i 

------------------------------------------------------------------------

Row_Buffer_Locality = 0.500000
Row_Buffer_Locality_read = 0.500000
Row_Buffer_Locality_write = -nan
Bank_Level_Parallism = 1.258775
Bank_Level_Parallism_Col = 1.110276
Bank_Level_Parallism_Ready = 1.000000
write_to_read_ratio_blp_rw_average = 0.000000
GrpLevelPara = 1.097744 

BW Util details:
bwutil = 0.001786 
total_CMD = 179221 
util_bw = 320 
Wasted_Col = 658 
Wasted_Row = 388 
Idle = 177855 

BW Util Bottlenecks: 
RCDc_limit = 725 
RCDWRc_limit = 0 
WTRc_limit = 0 
RTWc_limit = 0 
CCDLc_limit = 0 
rwq = 0 
CCDLc_limit_alone = 0 
WTRc_limit_alone = 0 
RTWc_limit_alone = 0 

Commands details: 
total_CMD = 179221 
n_nop = 179079 
Read = 80 
Write = 0 
L2_Alloc = 0 
L2_WB = 0 
n_act = 40 
n_pre = 25 
n_ref = 0 
n_req = 80 
total_req = 80 

Dual Bus Interface Util: 
issued_total_row = 65 
issued_total_col = 80 
Row_Bus_Util =  0.000363 
CoL_Bus_Util = 0.000446 
Either_Row_CoL_Bus_Util = 0.000792 
Issued_on_Two_Bus_Simul_Util = 0.000017 
issued_two_Eff = 0.021127 
queue_avg = 0.000921 


dram_util_bins: 0 0 0 0 0 0 0 0 0 0
dram_eff_bins: 0 0 0 0 0 0 0 0 0 0
mrqq: max=2 avg=0.000920651
Memory Partition 14: 
Cache L2_bank_028:
MSHR contents

Cache L2_bank_029:
MSHR contents

In Dram Latency Queue (total = 0): 
DRAM[14]: 16 bks, busW=2 BL=16 CL=20, tRRD=10 tCCD=4, tRCD=20 tRAS=50 tRP=20 tRC=62
n_cmd=179221 n_nop=179083 n_act=38 n_pre=22 n_ref_event=0 n_req=81 n_rd=81 n_rd_L2_A=0 n_write=0 n_wr_bk=0 bw_util=0.001808
n_activity=2247 dram_eff=0.1442
bk0: 22a 179088i bk1: 24a 179132i bk2: 2a 179150i bk3: 1a 179197i bk4: 2a 179134i bk5: 1a 179202i bk6: 3a 179157i bk7: 4a 179081i bk8: 5a 179019i bk9: 4a 179062i bk10: 3a 179151i bk11: 3a 179121i bk12: 2a 179150i bk13: 2a 179160i bk14: 1a 179201i bk15: 2a 179162i 

------------------------------------------------------------------------

Row_Buffer_Locality = 0.530864
Row_Buffer_Locality_read = 0.530864
Row_Buffer_Locality_write = -nan
Bank_Level_Parallism = 1.355916
Bank_Level_Parallism_Col = 1.168237
Bank_Level_Parallism_Ready = 1.035714
write_to_read_ratio_blp_rw_average = 0.000000
GrpLevelPara = 1.129206 

BW Util details:
bwutil = 0.001808 
total_CMD = 179221 
util_bw = 324 
Wasted_Col = 592 
Wasted_Row = 272 
Idle = 178033 

BW Util Bottlenecks: 
RCDc_limit = 676 
RCDWRc_limit = 0 
WTRc_limit = 0 
RTWc_limit = 0 
CCDLc_limit = 0 
rwq = 0 
CCDLc_limit_alone = 0 
WTRc_limit_alone = 0 
RTWc_limit_alone = 0 

Commands details: 
total_CMD = 179221 
n_nop = 179083 
Read = 81 
Write = 0 
L2_Alloc = 0 
L2_WB = 0 
n_act = 38 
n_pre = 22 
n_ref = 0 
n_req = 81 
total_req = 81 

Dual Bus Interface Util: 
issued_total_row = 60 
issued_total_col = 81 
Row_Bus_Util =  0.000335 
CoL_Bus_Util = 0.000452 
Either_Row_CoL_Bus_Util = 0.000770 
Issued_on_Two_Bus_Simul_Util = 0.000017 
issued_two_Eff = 0.021739 
queue_avg = 0.000937 


dram_util_bins: 0 0 0 0 0 0 0 0 0 0
dram_eff_bins: 0 0 0 0 0 0 0 0 0 0
mrqq: max=3 avg=0.00093739
Memory Partition 15: 
Cache L2_bank_030:
MSHR contents

Cache L2_bank_031:
MSHR contents

In Dram Latency Queue (total = 0): 
DRAM[15]: 16 bks, busW=2 BL=16 CL=20, tRRD=10 tCCD=4, tRCD=20 tRAS=50 tRP=20 tRC=62
n_cmd=179221 n_nop=179094 n_act=32 n_pre=17 n_ref_event=0 n_req=79 n_rd=79 n_rd_L2_A=0 n_write=0 n_wr_bk=0 bw_util=0.001763
n_activity=2048 dram_eff=0.1543
bk0: 24a 179116i bk1: 25a 179095i bk2: 2a 179161i bk3: 2a 179160i bk4: 3a 179150i bk5: 1a 179202i bk6: 4a 179117i bk7: 2a 179159i bk8: 2a 179152i bk9: 4a 179060i bk10: 1a 179191i bk11: 2a 179198i bk12: 3a 179119i bk13: 2a 179151i bk14: 0a 179218i bk15: 2a 179161i 

------------------------------------------------------------------------

Row_Buffer_Locality = 0.594937
Row_Buffer_Locality_read = 0.594937
Row_Buffer_Locality_write = -nan
Bank_Level_Parallism = 1.212152
Bank_Level_Parallism_Col = 1.095578
Bank_Level_Parallism_Ready = 1.037975
write_to_read_ratio_blp_rw_average = 0.000000
GrpLevelPara = 1.068474 

BW Util details:
bwutil = 0.001763 
total_CMD = 179221 
util_bw = 316 
Wasted_Col = 549 
Wasted_Row = 239 
Idle = 178117 

BW Util Bottlenecks: 
RCDc_limit = 593 
RCDWRc_limit = 0 
WTRc_limit = 0 
RTWc_limit = 0 
CCDLc_limit = 0 
rwq = 0 
CCDLc_limit_alone = 0 
WTRc_limit_alone = 0 
RTWc_limit_alone = 0 

Commands details: 
total_CMD = 179221 
n_nop = 179094 
Read = 79 
Write = 0 
L2_Alloc = 0 
L2_WB = 0 
n_act = 32 
n_pre = 17 
n_ref = 0 
n_req = 79 
total_req = 79 

Dual Bus Interface Util: 
issued_total_row = 49 
issued_total_col = 79 
Row_Bus_Util =  0.000273 
CoL_Bus_Util = 0.000441 
Either_Row_CoL_Bus_Util = 0.000709 
Issued_on_Two_Bus_Simul_Util = 0.000006 
issued_two_Eff = 0.007874 
queue_avg = 0.001507 


dram_util_bins: 0 0 0 0 0 0 0 0 0 0
dram_eff_bins: 0 0 0 0 0 0 0 0 0 0
mrqq: max=3 avg=0.00150652

========= L2 cache stats =========
L2_cache_bank[0]: Access = 994, Miss = 57, Miss_rate = 0.057, Pending_hits = 8, Reservation_fails = 0
L2_cache_bank[1]: Access = 998, Miss = 59, Miss_rate = 0.059, Pending_hits = 8, Reservation_fails = 0
L2_cache_bank[2]: Access = 956, Miss = 62, Miss_rate = 0.065, Pending_hits = 4, Reservation_fails = 0
L2_cache_bank[3]: Access = 951, Miss = 60, Miss_rate = 0.063, Pending_hits = 4, Reservation_fails = 0
L2_cache_bank[4]: Access = 964, Miss = 66, Miss_rate = 0.068, Pending_hits = 4, Reservation_fails = 0
L2_cache_bank[5]: Access = 1008, Miss = 64, Miss_rate = 0.063, Pending_hits = 8, Reservation_fails = 0
L2_cache_bank[6]: Access = 1002, Miss = 61, Miss_rate = 0.061, Pending_hits = 8, Reservation_fails = 0
L2_cache_bank[7]: Access = 1019, Miss = 70, Miss_rate = 0.069, Pending_hits = 8, Reservation_fails = 0
L2_cache_bank[8]: Access = 963, Miss = 55, Miss_rate = 0.057, Pending_hits = 8, Reservation_fails = 0
L2_cache_bank[9]: Access = 987, Miss = 63, Miss_rate = 0.064, Pending_hits = 8, Reservation_fails = 0
L2_cache_bank[10]: Access = 982, Miss = 63, Miss_rate = 0.064, Pending_hits = 8, Reservation_fails = 0
L2_cache_bank[11]: Access = 945, Miss = 62, Miss_rate = 0.066, Pending_hits = 4, Reservation_fails = 0
L2_cache_bank[12]: Access = 908, Miss = 53, Miss_rate = 0.058, Pending_hits = 4, Reservation_fails = 0
L2_cache_bank[13]: Access = 913, Miss = 55, Miss_rate = 0.060, Pending_hits = 4, Reservation_fails = 0
L2_cache_bank[14]: Access = 920, Miss = 58, Miss_rate = 0.063, Pending_hits = 4, Reservation_fails = 0
L2_cache_bank[15]: Access = 934, Miss = 65, Miss_rate = 0.070, Pending_hits = 4, Reservation_fails = 0
L2_cache_bank[16]: Access = 928, Miss = 41, Miss_rate = 0.044, Pending_hits = 4, Reservation_fails = 0
L2_cache_bank[17]: Access = 853, Miss = 39, Miss_rate = 0.046, Pending_hits = 0, Reservation_fails = 0
L2_cache_bank[18]: Access = 881, Miss = 54, Miss_rate = 0.061, Pending_hits = 0, Reservation_fails = 0
L2_cache_bank[19]: Access = 931, Miss = 41, Miss_rate = 0.044, Pending_hits = 4, Reservation_fails = 0
L2_cache_bank[20]: Access = 959, Miss = 45, Miss_rate = 0.047, Pending_hits = 8, Reservation_fails = 0
L2_cache_bank[21]: Access = 885, Miss = 36, Miss_rate = 0.041, Pending_hits = 4, Reservation_fails = 0
L2_cache_bank[22]: Access = 965, Miss = 46, Miss_rate = 0.048, Pending_hits = 8, Reservation_fails = 0
L2_cache_bank[23]: Access = 965, Miss = 49, Miss_rate = 0.051, Pending_hits = 8, Reservation_fails = 0
L2_cache_bank[24]: Access = 837, Miss = 35, Miss_rate = 0.042, Pending_hits = 0, Reservation_fails = 0
L2_cache_bank[25]: Access = 855, Miss = 41, Miss_rate = 0.048, Pending_hits = 0, Reservation_fails = 0
L2_cache_bank[26]: Access = 850, Miss = 43, Miss_rate = 0.051, Pending_hits = 0, Reservation_fails = 0
L2_cache_bank[27]: Access = 894, Miss = 39, Miss_rate = 0.044, Pending_hits = 0, Reservation_fails = 0
L2_cache_bank[28]: Access = 857, Miss = 41, Miss_rate = 0.048, Pending_hits = 0, Reservation_fails = 0
L2_cache_bank[29]: Access = 902, Miss = 41, Miss_rate = 0.045, Pending_hits = 4, Reservation_fails = 0
L2_cache_bank[30]: Access = 902, Miss = 40, Miss_rate = 0.044, Pending_hits = 4, Reservation_fails = 0
L2_cache_bank[31]: Access = 907, Miss = 41, Miss_rate = 0.045, Pending_hits = 4, Reservation_fails = 0
L2_total_cache_accesses = 29815
L2_total_cache_misses = 1645
L2_total_cache_miss_rate = 0.0552
L2_total_cache_pending_hits = 144
L2_total_cache_reservation_fails = 0
L2_total_cache_breakdown:
	L2_cache_stats_breakdown[GLOBAL_ACC_R][HIT] = 23939
	L2_cache_stats_breakdown[GLOBAL_ACC_R][HIT_RESERVED] = 0
	L2_cache_stats_breakdown[GLOBAL_ACC_R][MISS] = 731
	L2_cache_stats_breakdown[GLOBAL_ACC_R][RESERVATION_FAIL] = 0
	L2_cache_stats_breakdown[GLOBAL_ACC_R][SECTOR_MISS] = 509
	L2_cache_stats_breakdown[GLOBAL_ACC_R][MSHR_HIT] = 0
	L2_cache_stats_breakdown[LOCAL_ACC_R][HIT] = 0
	L2_cache_stats_breakdown[LOCAL_ACC_R][HIT_RESERVED] = 0
	L2_cache_stats_breakdown[LOCAL_ACC_R][MISS] = 0
	L2_cache_stats_breakdown[LOCAL_ACC_R][RESERVATION_FAIL] = 0
	L2_cache_stats_breakdown[LOCAL_ACC_R][SECTOR_MISS] = 0
	L2_cache_stats_breakdown[LOCAL_ACC_R][MSHR_HIT] = 0
	L2_cache_stats_breakdown[CONST_ACC_R][HIT] = 0
	L2_cache_stats_breakdown[CONST_ACC_R][HIT_RESERVED] = 0
	L2_cache_stats_breakdown[CONST_ACC_R][MISS] = 0
	L2_cache_stats_breakdown[CONST_ACC_R][RESERVATION_FAIL] = 0
	L2_cache_stats_breakdown[CONST_ACC_R][SECTOR_MISS] = 0
	L2_cache_stats_breakdown[CONST_ACC_R][MSHR_HIT] = 0
	L2_cache_stats_breakdown[TEXTURE_ACC_R][HIT] = 0
	L2_cache_stats_breakdown[TEXTURE_ACC_R][HIT_RESERVED] = 0
	L2_cache_stats_breakdown[TEXTURE_ACC_R][MISS] = 0
	L2_cache_stats_breakdown[TEXTURE_ACC_R][RESERVATION_FAIL] = 0
	L2_cache_stats_breakdown[TEXTURE_ACC_R][SECTOR_MISS] = 0
	L2_cache_stats_breakdown[TEXTURE_ACC_R][MSHR_HIT] = 0
	L2_cache_stats_breakdown[GLOBAL_ACC_W][HIT] = 2359
	L2_cache_stats_breakdown[GLOBAL_ACC_W][HIT_RESERVED] = 0
	L2_cache_stats_breakdown[GLOBAL_ACC_W][MISS] = 37
	L2_cache_stats_breakdown[GLOBAL_ACC_W][RESERVATION_FAIL] = 0
	L2_cache_stats_breakdown[GLOBAL_ACC_W][SECTOR_MISS] = 224
	L2_cache_stats_breakdown[GLOBAL_ACC_W][MSHR_HIT] = 0
	L2_cache_stats_breakdown[LOCAL_ACC_W][HIT] = 0
	L2_cache_stats_breakdown[LOCAL_ACC_W][HIT_RESERVED] = 0
	L2_cache_stats_breakdown[LOCAL_ACC_W][MISS] = 0
	L2_cache_stats_breakdown[LOCAL_ACC_W][RESERVATION_FAIL] = 0
	L2_cache_stats_breakdown[LOCAL_ACC_W][SECTOR_MISS] = 0
	L2_cache_stats_breakdown[LOCAL_ACC_W][MSHR_HIT] = 0
	L2_cache_stats_breakdown[L1_WRBK_ACC][HIT] = 0
	L2_cache_stats_breakdown[L1_WRBK_ACC][HIT_RESERVED] = 0
	L2_cache_stats_breakdown[L1_WRBK_ACC][MISS] = 0
	L2_cache_stats_breakdown[L1_WRBK_ACC][RESERVATION_FAIL] = 0
	L2_cache_stats_breakdown[L1_WRBK_ACC][SECTOR_MISS] = 0
	L2_cache_stats_breakdown[L1_WRBK_ACC][MSHR_HIT] = 0
	L2_cache_stats_breakdown[L2_WRBK_ACC][HIT] = 0
	L2_cache_stats_breakdown[L2_WRBK_ACC][HIT_RESERVED] = 0
	L2_cache_stats_breakdown[L2_WRBK_ACC][MISS] = 0
	L2_cache_stats_breakdown[L2_WRBK_ACC][RESERVATION_FAIL] = 0
	L2_cache_stats_breakdown[L2_WRBK_ACC][SECTOR_MISS] = 0
	L2_cache_stats_breakdown[L2_WRBK_ACC][MSHR_HIT] = 0
	L2_cache_stats_breakdown[INST_ACC_R][HIT] = 1728
	L2_cache_stats_breakdown[INST_ACC_R][HIT_RESERVED] = 144
	L2_cache_stats_breakdown[INST_ACC_R][MISS] = 36
	L2_cache_stats_breakdown[INST_ACC_R][RESERVATION_FAIL] = 0
	L2_cache_stats_breakdown[INST_ACC_R][SECTOR_MISS] = 108
	L2_cache_stats_breakdown[INST_ACC_R][MSHR_HIT] = 144
	L2_cache_stats_breakdown[L1_WR_ALLOC_R][HIT] = 0
	L2_cache_stats_breakdown[L1_WR_ALLOC_R][HIT_RESERVED] = 0
	L2_cache_stats_breakdown[L1_WR_ALLOC_R][MISS] = 0
	L2_cache_stats_breakdown[L1_WR_ALLOC_R][RESERVATION_FAIL] = 0
	L2_cache_stats_breakdown[L1_WR_ALLOC_R][SECTOR_MISS] = 0
	L2_cache_stats_breakdown[L1_WR_ALLOC_R][MSHR_HIT] = 0
	L2_cache_stats_breakdown[L2_WR_ALLOC_R][HIT] = 0
	L2_cache_stats_breakdown[L2_WR_ALLOC_R][HIT_RESERVED] = 0
	L2_cache_stats_breakdown[L2_WR_ALLOC_R][MISS] = 0
	L2_cache_stats_breakdown[L2_WR_ALLOC_R][RESERVATION_FAIL] = 0
	L2_cache_stats_breakdown[L2_WR_ALLOC_R][SECTOR_MISS] = 0
	L2_cache_stats_breakdown[L2_WR_ALLOC_R][MSHR_HIT] = 0
	L2_cache_stats_breakdown[GLOBAL_ACC_R][TOTAL_ACCESS] = 25179
	L2_cache_stats_breakdown[GLOBAL_ACC_W][TOTAL_ACCESS] = 2620
	L2_cache_stats_breakdown[INST_ACC_R][TOTAL_ACCESS] = 2160
L2_total_cache_reservation_fail_breakdown:
L2_cache_data_port_util = 0.009
L2_cache_fill_port_util = 0.000

icnt_total_pkts_mem_to_simt=29815
icnt_total_pkts_simt_to_mem=28303
LD_mem_lat_dist  0 0 0 0 0 0 0 0 0 0 0 0 0 0 0 0 0 0 0 0 0 0 0 0 0 0 0
ST_mem_lat_dist  0 0 0 0 0 0 0 0 0 0 0 0 0 0 0 0 0 0 0 0 0 0 0 0 0 0 0
----------------------------Interconnect-DETAILS--------------------------------
Req_Network_injected_packets_num = 28303
Req_Network_cycles = 97548
Req_Network_injected_packets_per_cycle =       0.2901 
Req_Network_conflicts_per_cycle =       0.0009
Req_Network_conflicts_per_cycle_util =       0.0055
Req_Bank_Level_Parallism =       1.7123
Req_Network_in_buffer_full_per_cycle =       0.0000
Req_Network_in_buffer_avg_util =       0.0002
Req_Network_out_buffer_full_per_cycle =       0.0000
Req_Network_out_buffer_avg_util =       0.0091

Reply_Network_injected_packets_num = 29815
Reply_Network_cycles = 97548
Reply_Network_injected_packets_per_cycle =        0.3056
Reply_Network_conflicts_per_cycle =        0.4390
Reply_Network_conflicts_per_cycle_util =       2.3836
Reply_Bank_Level_Parallism =       1.6595
Reply_Network_in_buffer_full_per_cycle =       0.0000
Reply_Network_in_buffer_avg_util =       0.0169
Reply_Network_out_buffer_full_per_cycle =       0.0000
Reply_Network_out_buffer_avg_util =       0.0090
----------------------------END-of-Interconnect-DETAILS-------------------------


gpgpu_simulation_time = 0 days, 0 hrs, 0 min, 31 sec (31 sec)
gpgpu_simulation_rate = 34953 (inst/sec)
gpgpu_simulation_rate = 3146 (cycle/sec)
gpgpu_silicon_slowdown = 605530x
launching memcpy command : MemcpyHtoD,0x00007febe3707000,4096
launching memcpy command : MemcpyHtoD,0x00007febe3708400,32768
Processing kernel ../../../../hw_run/rodinia_2.0-ft/11.0/streamcluster-rodinia-2.0-ft/3_6_16_1024_1024_100_none_output_txt_1___data_result_3_6_16_1024_1024_100_none_1_txt/traces/kernel-8.traceg
-kernel name = _Z12pgain_kerneliilP5PointiPfS1_PiPb
-kernel id = 8
-grid dim = (2,1,1)
-block dim = (512,1,1)
-shmem = 64
-nregs = 32
-binary version = 70
-cuda stream id = 0
-shmem base_addr = 0x00007fec18000000
-local mem base_addr = 0x00007fec1a000000
-nvbit version = 1.4
-accelsim tracer version = 3
launching kernel command : ../../../../hw_run/rodinia_2.0-ft/11.0/streamcluster-rodinia-2.0-ft/3_6_16_1024_1024_100_none_output_txt_1___data_result_3_6_16_1024_1024_100_none_1_txt/traces/kernel-8.traceg
GPGPU-Sim uArch: Shader 14 bind to kernel 8 '_Z12pgain_kerneliilP5PointiPfS1_PiPb'
thread block = 0,0,0
GPGPU-Sim uArch: Shader 15 bind to kernel 8 '_Z12pgain_kerneliilP5PointiPfS1_PiPb'
thread block = 1,0,0
