

        *** GPGPU-Sim Simulator Version 4.2.0  [build gpgpu-sim_git-commit-fc80690a07466c1876745320413ad46fcb9c3275_modified_18.0] ***


GPGPU-Sim: Configuration options:

-save_embedded_ptx                      0 # saves ptx files embedded in binary as <n>.ptx
-keep                                   0 # keep intermediate files created by GPGPU-Sim when interfacing with external programs
-gpgpu_ptx_save_converted_ptxplus                    0 # Saved converted ptxplus to a file
-gpgpu_occupancy_sm_number                   75 # The SM number to pass to ptxas when getting register usage for computing GPU occupancy. This parameter is required in the config.
-ptx_opcode_latency_int      4,13,4,5,145,32 # Opcode latencies for integers <ADD,MAX,MUL,MAD,DIV,SHFL>Default 1,1,19,25,145,32
-ptx_opcode_latency_fp          4,13,4,5,39 # Opcode latencies for single precision floating points <ADD,MAX,MUL,MAD,DIV>Default 1,1,1,1,30
-ptx_opcode_latency_dp         8,19,8,8,330 # Opcode latencies for double precision floating points <ADD,MAX,MUL,MAD,DIV>Default 8,8,8,8,335
-ptx_opcode_latency_sfu                  100 # Opcode latencies for SFU instructionsDefault 8
-ptx_opcode_latency_tesnor                   64 # Opcode latencies for Tensor instructionsDefault 64
-ptx_opcode_initiation_int          2,2,2,2,8,4 # Opcode initiation intervals for integers <ADD,MAX,MUL,MAD,DIV,SHFL>Default 1,1,4,4,32,4
-ptx_opcode_initiation_fp            2,2,2,2,4 # Opcode initiation intervals for single precision floating points <ADD,MAX,MUL,MAD,DIV>Default 1,1,1,1,5
-ptx_opcode_initiation_dp          4,4,4,4,130 # Opcode initiation intervals for double precision floating points <ADD,MAX,MUL,MAD,DIV>Default 8,8,8,8,130
-ptx_opcode_initiation_sfu                    8 # Opcode initiation intervals for sfu instructionsDefault 8
-ptx_opcode_initiation_tensor                   64 # Opcode initiation intervals for tensor instructionsDefault 64
-cdp_latency         7200,8000,100,12000,1600 # CDP API latency <cudaStreamCreateWithFlags, cudaGetParameterBufferV2_init_perWarp, cudaGetParameterBufferV2_perKernel, cudaLaunchDeviceV2_init_perWarp, cudaLaunchDevicV2_perKernel>Default 7200,8000,100,12000,1600
-network_mode                           2 # Interconnection network mode
-inter_config_file                   mesh # Interconnection network config file
-icnt_in_buffer_limit                  512 # in_buffer_limit
-icnt_out_buffer_limit                  512 # out_buffer_limit
-icnt_subnets                           2 # subnets
-icnt_arbiter_algo                      1 # arbiter_algo
-icnt_verbose                           0 # inct_verbose
-icnt_grant_cycles                      1 # grant_cycles
-gpgpu_ptx_use_cuobjdump                    1 # Use cuobjdump to extract ptx and sass from binaries
-gpgpu_experimental_lib_support                    0 # Try to extract code from cuda libraries [Broken because of unknown cudaGetExportTable]
-checkpoint_option                      0 #  checkpointing flag (0 = no checkpoint)
-checkpoint_kernel                      1 #  checkpointing during execution of which kernel (1- 1st kernel)
-checkpoint_CTA                         0 #  checkpointing after # of CTA (< less than total CTA)
-resume_option                          0 #  resume flag (0 = no resume)
-resume_kernel                          0 #  Resume from which kernel (1= 1st kernel)
-resume_CTA                             0 #  resume from which CTA 
-checkpoint_CTA_t                       0 #  resume from which CTA 
-checkpoint_insn_Y                      0 #  resume from which CTA 
-gpgpu_ptx_convert_to_ptxplus                    0 # Convert SASS (native ISA) to ptxplus and run ptxplus
-gpgpu_ptx_force_max_capability                   75 # Force maximum compute capability
-gpgpu_ptx_inst_debug_to_file                    0 # Dump executed instructions' debug information to file
-gpgpu_ptx_inst_debug_file       inst_debug.txt # Executed instructions' debug output file
-gpgpu_ptx_inst_debug_thread_uid                    1 # Thread UID for executed instructions' debug output
-gpgpu_simd_model                       1 # 1 = post-dominator
-gpgpu_shader_core_pipeline              1024:32 # shader core pipeline config, i.e., {<nthread>:<warpsize>}
-gpgpu_tex_cache:l1  N:4:128:256,L:R:m:N:L,T:512:8,128:2 # per-shader L1 texture cache  (READ-ONLY) config  {<nsets>:<bsize>:<assoc>,<rep>:<wr>:<alloc>:<wr_alloc>,<mshr>:<N>:<merge>,<mq>:<rf>}
-gpgpu_const_cache:l1 N:128:64:8,L:R:f:N:L,S:2:64,4 # per-shader L1 constant memory cache  (READ-ONLY) config  {<nsets>:<bsize>:<assoc>,<rep>:<wr>:<alloc>:<wr_alloc>,<mshr>:<N>:<merge>,<mq>} 
-gpgpu_cache:il1     N:64:128:16,L:R:f:N:L,S:2:48,4 # shader L1 instruction cache config  {<nsets>:<bsize>:<assoc>,<rep>:<wr>:<alloc>:<wr_alloc>,<mshr>:<N>:<merge>,<mq>} 
-gpgpu_cache:dl1     S:1:128:512,L:L:s:N:L,A:256:8,16:0,32 # per-shader L1 data cache config  {<nsets>:<bsize>:<assoc>,<rep>:<wr>:<alloc>:<wr_alloc>,<mshr>:<N>:<merge>,<mq> | none}
-gpgpu_l1_banks                         4 # The number of L1 cache banks
-gpgpu_l1_banks_byte_interleaving                   32 # l1 banks byte interleaving granularity
-gpgpu_l1_banks_hashing_function                    0 # l1 banks hashing function
-gpgpu_l1_latency                      20 # L1 Hit Latency
-gpgpu_smem_latency                    20 # smem Latency
-gpgpu_cache:dl1PrefL1                 none # per-shader L1 data cache config  {<nsets>:<bsize>:<assoc>,<rep>:<wr>:<alloc>:<wr_alloc>,<mshr>:<N>:<merge>,<mq> | none}
-gpgpu_cache:dl1PrefShared                 none # per-shader L1 data cache config  {<nsets>:<bsize>:<assoc>,<rep>:<wr>:<alloc>:<wr_alloc>,<mshr>:<N>:<merge>,<mq> | none}
-gpgpu_gmem_skip_L1D                    0 # global memory access skip L1D cache (implements -Xptxas -dlcm=cg, default=no skip)
-gpgpu_perfect_mem                      0 # enable perfect memory mode (no cache miss)
-gpgpu_perfect_mem_data                    0 # no wait for data on scoreboard
-gpgpu_write_sched_order                    0 # write order in which warps were executed in file
-gpgpu_follow_defined_sched_order                    0 # follow sched order written in file
-gpgpu_print_stall_data                    0 # Print verbose stall data per cycle
-gpgpu_print_cout_statements                    0 # Print verbose stall data per cycle
-gpgpu_sched_all_warps                    0 # All schedulers see all warps
-gpgpu_reply_buffer                     0 # Replay instructions which could not be executed later
-gpgpu_reply_buffer_seperate_mem_comp                    0 # Replay instructions which could not be executed later
-n_regfile_gating_group                    4 # group of lanes that should be read/written together)
-gpgpu_clock_gated_reg_file                    0 # enable clock gated reg file for power calculations
-gpgpu_clock_gated_lanes                    1 # enable clock gated lanes for power calculations
-gpgpu_shader_registers                65536 # Number of registers per shader core. Limits number of concurrent CTAs. (default 8192)
-gpgpu_registers_per_block                65536 # Maximum number of registers per CTA. (default 8192)
-gpgpu_ignore_resources_limitation                    0 # gpgpu_ignore_resources_limitation (default 0)
-gpgpu_shader_cta                      32 # Maximum number of concurrent CTAs in shader (default 8)
-gpgpu_num_cta_barriers                   16 # Maximum number of named barriers per CTA (default 16)
-gpgpu_n_clusters                      34 # number of processing clusters
-gpgpu_n_cores_per_cluster                    1 # number of simd cores per cluster
-gpgpu_n_cluster_ejection_buffer_size                   32 # number of packets in ejection buffer
-gpgpu_n_ldst_response_buffer_size                    2 # number of response packets in ld/st unit ejection buffer
-gpgpu_shmem_per_block                65536 # Size of shared memory per thread block or CTA (default 48kB)
-gpgpu_shmem_size                   65536 # Size of shared memory per shader core (default 16kB)
-gpgpu_adaptive_cache_config                    0 # adaptive_cache_config
-gpgpu_shmem_sizeDefault                65536 # Size of shared memory per shader core (default 16kB)
-gpgpu_shmem_size_PrefL1                16384 # Size of shared memory per shader core (default 16kB)
-gpgpu_shmem_size_PrefShared                16384 # Size of shared memory per shader core (default 16kB)
-gpgpu_shmem_num_banks                   32 # Number of banks in the shared memory in each shader core (default 16)
-gpgpu_shmem_limited_broadcast                    0 # Limit shared memory to do one broadcast per cycle (default on)
-gpgpu_shmem_warp_parts                    1 # Number of portions a warp is divided into for shared memory bank conflict check 
-gpgpu_mem_unit_ports                    1 # The number of memory transactions allowed per core cycle
-gpgpu_shmem_warp_parts                    1 # Number of portions a warp is divided into for shared memory bank conflict check 
-gpgpu_warpdistro_shader                   -1 # Specify which shader core to collect the warp size distribution from
-gpgpu_warp_issue_shader                    0 # Specify which shader core to collect the warp issue distribution from
-gpgpu_local_mem_map                    1 # Mapping from local memory space address to simulated GPU physical address space (default = enabled)
-gpgpu_num_reg_banks                   16 # Number of register banks (default = 8)
-gpgpu_reg_bank_use_warp_id                    0 # Use warp ID in mapping registers to banks (default = off)
-gpgpu_sub_core_model                    1 # Sub Core Volta/Pascal model (default = off)
-gpgpu_enable_specialized_operand_collector                    0 # enable_specialized_operand_collector
-gpgpu_operand_collector_num_units_sp                    4 # number of collector units (default = 4)
-gpgpu_operand_collector_num_units_dp                    0 # number of collector units (default = 0)
-gpgpu_operand_collector_num_units_sfu                    4 # number of collector units (default = 4)
-gpgpu_operand_collector_num_units_int                    0 # number of collector units (default = 0)
-gpgpu_operand_collector_num_units_tensor_core                    4 # number of collector units (default = 4)
-gpgpu_operand_collector_num_units_mem                    2 # number of collector units (default = 2)
-gpgpu_operand_collector_num_units_gen                    8 # number of collector units (default = 0)
-gpgpu_operand_collector_num_in_ports_sp                    1 # number of collector unit in ports (default = 1)
-gpgpu_operand_collector_num_in_ports_dp                    0 # number of collector unit in ports (default = 0)
-gpgpu_operand_collector_num_in_ports_sfu                    1 # number of collector unit in ports (default = 1)
-gpgpu_operand_collector_num_in_ports_int                    0 # number of collector unit in ports (default = 0)
-gpgpu_operand_collector_num_in_ports_tensor_core                    1 # number of collector unit in ports (default = 1)
-gpgpu_operand_collector_num_in_ports_mem                    1 # number of collector unit in ports (default = 1)
-gpgpu_operand_collector_num_in_ports_gen                    8 # number of collector unit in ports (default = 0)
-gpgpu_operand_collector_num_out_ports_sp                    1 # number of collector unit in ports (default = 1)
-gpgpu_operand_collector_num_out_ports_dp                    0 # number of collector unit in ports (default = 0)
-gpgpu_operand_collector_num_out_ports_sfu                    1 # number of collector unit in ports (default = 1)
-gpgpu_operand_collector_num_out_ports_int                    0 # number of collector unit in ports (default = 0)
-gpgpu_operand_collector_num_out_ports_tensor_core                    1 # number of collector unit in ports (default = 1)
-gpgpu_operand_collector_num_out_ports_mem                    1 # number of collector unit in ports (default = 1)
-gpgpu_operand_collector_num_out_ports_gen                    8 # number of collector unit in ports (default = 0)
-gpgpu_coalesce_arch                   75 # Coalescing arch (GT200 = 13, Fermi = 20)
-gpgpu_num_sched_per_core                    4 # Number of warp schedulers per core
-gpgpu_max_insn_issue_per_warp                    1 # Max number of instructions that can be issued per warp in one cycle by scheduler (either 1 or 2)
-gpgpu_dual_issue_diff_exec_units                    1 # should dual issue use two different execution unit resources (Default = 1)
-gpgpu_simt_core_sim_order                    1 # Select the simulation order of cores in a cluster (0=Fix, 1=Round-Robin)
-gpgpu_pipeline_widths 4,0,4,4,4,4,0,4,4,4,8,4,4 # Pipeline widths ID_OC_SP,ID_OC_DP,ID_OC_INT,ID_OC_SFU,ID_OC_MEM,OC_EX_SP,OC_EX_DP,OC_EX_INT,OC_EX_SFU,OC_EX_MEM,EX_WB,ID_OC_TENSOR_CORE,OC_EX_TENSOR_CORE
-gpgpu_tensor_core_avail                    1 # Tensor Core Available (default=0)
-gpgpu_num_sp_units                     4 # Number of SP units (default=1)
-gpgpu_num_dp_units                     0 # Number of DP units (default=0)
-gpgpu_num_int_units                    4 # Number of INT units (default=0)
-gpgpu_num_sfu_units                    4 # Number of SF units (default=1)
-gpgpu_num_tensor_core_units                    4 # Number of tensor_core units (default=1)
-gpgpu_num_mem_units                    1 # Number if ldst units (default=1) WARNING: not hooked up to anything
-gpgpu_scheduler                      lrr # Scheduler configuration: < lrr | gto | two_level_active > If two_level_active:<num_active_warps>:<inner_prioritization>:<outer_prioritization>For complete list of prioritization values see shader.h enum scheduler_prioritization_typeDefault: gto
-gpgpu_concurrent_kernel_sm                    0 # Support concurrent kernels on a SM (default = disabled)
-gpgpu_perfect_inst_const_cache                    0 # perfect inst and const cache mode, so all inst and const hits in the cache(default = disabled)
-gpgpu_perfect_control                    0 # perfect control so that all control hazardsare resolved immediately
-gpgpu_pending_write_ignore                    0 # Ignore Pending Writes
-gpgpu_ignore_synchronization                    0 # Ignores synchronization (CAREFUL: may break execution)
-gpgpu_inst_fetch_throughput                    4 # the number of fetched intruction per warp each cycle
-gpgpu_reg_file_port_throughput                    2 # the number ports of the register file
-specialized_unit_1         1,4,4,4,4,BRA # specialized unit config {<enabled>,<num_units>:<latency>:<initiation>,<ID_OC_SPEC>:<OC_EX_SPEC>,<NAME>}
-specialized_unit_2       1,1,200,4,4,TEX # specialized unit config {<enabled>,<num_units>:<latency>:<initiation>,<ID_OC_SPEC>:<OC_EX_SPEC>,<NAME>}
-specialized_unit_3      1,4,8,4,4,TENSOR # specialized unit config {<enabled>,<num_units>:<latency>:<initiation>,<ID_OC_SPEC>:<OC_EX_SPEC>,<NAME>}
-specialized_unit_4         1,4,4,4,4,UDP # specialized unit config {<enabled>,<num_units>:<latency>:<initiation>,<ID_OC_SPEC>:<OC_EX_SPEC>,<NAME>}
-specialized_unit_5         0,4,4,4,4,BRA # specialized unit config {<enabled>,<num_units>:<latency>:<initiation>,<ID_OC_SPEC>:<OC_EX_SPEC>,<NAME>}
-specialized_unit_6         0,4,4,4,4,BRA # specialized unit config {<enabled>,<num_units>:<latency>:<initiation>,<ID_OC_SPEC>:<OC_EX_SPEC>,<NAME>}
-specialized_unit_7         0,4,4,4,4,BRA # specialized unit config {<enabled>,<num_units>:<latency>:<initiation>,<ID_OC_SPEC>:<OC_EX_SPEC>,<NAME>}
-specialized_unit_8         0,4,4,4,4,BRA # specialized unit config {<enabled>,<num_units>:<latency>:<initiation>,<ID_OC_SPEC>:<OC_EX_SPEC>,<NAME>}
-gpgpu_perf_sim_memcpy                    1 # Fill the L2 cache on memcpy
-gpgpu_simple_dram_model                    0 # simple_dram_model with fixed latency and BW
-gpgpu_dram_scheduler                    1 # 0 = fifo, 1 = FR-FCFS (defaul)
-gpgpu_dram_partition_queues          64:64:64:64 # i2$:$2d:d2$:$2i
-l2_ideal                               0 # Use a ideal L2 cache that always hit
-gpgpu_cache:dl2     S:64:128:16,L:B:m:L:P,A:192:4,32:0,32 # unified banked L2 data cache config  {<nsets>:<bsize>:<assoc>,<rep>:<wr>:<alloc>:<wr_alloc>,<mshr>:<N>:<merge>,<mq>}
-gpgpu_cache:dl2_texture_only                    0 # L2 cache used for texture only
-gpgpu_n_mem                           16 # number of memory modules (e.g. memory controllers) in gpu
-gpgpu_n_sub_partition_per_mchannel                    2 # number of memory subpartition in each memory module
-gpgpu_n_mem_per_ctrlr                    1 # number of memory chips per memory controller
-gpgpu_memlatency_stat                   14 # track and display latency statistics 0x2 enables MC, 0x4 enables queue logs
-gpgpu_frfcfs_dram_sched_queue_size                   64 # 0 = unlimited (default); # entries per chip
-gpgpu_dram_return_queue_size                  192 # 0 = unlimited (default); # entries per chip
-gpgpu_dram_buswidth                    2 # default = 4 bytes (8 bytes per cycle at DDR)
-gpgpu_dram_burst_length                   16 # Burst length of each DRAM request (default = 4 data bus cycle)
-dram_data_command_freq_ratio                    4 # Frequency ratio between DRAM data bus and command bus (default = 2 times, i.e. DDR)
-gpgpu_dram_timing_opt nbk=16:CCD=4:RRD=10:RCD=20:RAS=50:RP=20:RC=62: CL=20:WL=8:CDLR=9:WR=20:nbkgrp=4:CCDL=4:RTPL=4 # DRAM timing parameters = {nbk:tCCD:tRRD:tRCD:tRAS:tRP:tRC:CL:WL:tCDLR:tWR:nbkgrp:tCCDL:tRTPL}
-gpgpu_l2_rop_latency                  160 # ROP queue latency (default 85)
-dram_latency                         100 # DRAM latency (default 30)
-dram_dual_bus_interface                    0 # dual_bus_interface (default = 0) 
-dram_bnk_indexing_policy                    0 # dram_bnk_indexing_policy (0 = normal indexing, 1 = Xoring with the higher bits) (Default = 0)
-dram_bnkgrp_indexing_policy                    1 # dram_bnkgrp_indexing_policy (0 = take higher bits, 1 = take lower bits) (Default = 0)
-dram_seperate_write_queue_enable                    0 # Seperate_Write_Queue_Enable
-dram_write_queue_size             32:28:16 # Write_Queue_Size
-dram_elimnate_rw_turnaround                    0 # elimnate_rw_turnaround i.e set tWTR and tRTW = 0
-icnt_flit_size                        40 # icnt_flit_size
-gpgpu_mem_addr_mapping dramid@8;00000000.00000000.00000000.00000000.0000RRRR.RRRRRRRR.RBBBCCCC.BCCSSSSS # mapping memory address to dram model {dramid@<start bit>;<memory address map>}
-gpgpu_mem_addr_test                    0 # run sweep test to check address mapping for aliased address
-gpgpu_mem_address_mask                    1 # 0 = old addressing mask, 1 = new addressing mask, 2 = new add. mask + flipped bank sel and chip sel bits
-gpgpu_memory_partition_indexing                    0 # 0 = no indexing, 1 = bitwise xoring, 2 = IPoly, 3 = custom indexing
-accelwattch_xml_file accelwattch_ptx_sim.xml # AccelWattch XML file
-power_simulation_enabled                    1 # Turn on power simulator (1=On, 0=Off)
-power_per_cycle_dump                    0 # Dump detailed power output each cycle
-hw_perf_file_name            hw_perf.csv # Hardware Performance Statistics file
-hw_perf_bench_name                       # Kernel Name in Hardware Performance Statistics file
-power_simulation_mode                    0 # Switch performance counter input for power simulation (0=Sim, 1=HW, 2=HW-Sim Hybrid)
-dvfs_enabled                           0 # Turn on DVFS for power model
-aggregate_power_stats                    0 # Accumulate power across all kernels
-accelwattch_hybrid_perfsim_L1_RH                    0 # Get L1 Read Hits for Accelwattch-Hybrid from Accel-Sim
-accelwattch_hybrid_perfsim_L1_RM                    0 # Get L1 Read Misses for Accelwattch-Hybrid from Accel-Sim
-accelwattch_hybrid_perfsim_L1_WH                    0 # Get L1 Write Hits for Accelwattch-Hybrid from Accel-Sim
-accelwattch_hybrid_perfsim_L1_WM                    0 # Get L1 Write Misses for Accelwattch-Hybrid from Accel-Sim
-accelwattch_hybrid_perfsim_L2_RH                    0 # Get L2 Read Hits for Accelwattch-Hybrid from Accel-Sim
-accelwattch_hybrid_perfsim_L2_RM                    0 # Get L2 Read Misses for Accelwattch-Hybrid from Accel-Sim
-accelwattch_hybrid_perfsim_L2_WH                    0 # Get L2 Write Hits for Accelwattch-Hybrid from Accel-Sim
-accelwattch_hybrid_perfsim_L2_WM                    0 # Get L2 Write Misses for Accelwattch-Hybrid from Accel-Sim
-accelwattch_hybrid_perfsim_CC_ACC                    0 # Get Constant Cache Acesses for Accelwattch-Hybrid from Accel-Sim
-accelwattch_hybrid_perfsim_SHARED_ACC                    0 # Get Shared Memory Acesses for Accelwattch-Hybrid from Accel-Sim
-accelwattch_hybrid_perfsim_DRAM_RD                    0 # Get DRAM Reads for Accelwattch-Hybrid from Accel-Sim
-accelwattch_hybrid_perfsim_DRAM_WR                    0 # Get DRAM Writes for Accelwattch-Hybrid from Accel-Sim
-accelwattch_hybrid_perfsim_NOC                    0 # Get Interconnect Acesses for Accelwattch-Hybrid from Accel-Sim
-accelwattch_hybrid_perfsim_PIPE_DUTY                    0 # Get Pipeline Duty Cycle Acesses for Accelwattch-Hybrid from Accel-Sim
-accelwattch_hybrid_perfsim_NUM_SM_IDLE                    0 # Get Number of Idle SMs for Accelwattch-Hybrid from Accel-Sim
-accelwattch_hybrid_perfsim_CYCLES                    0 # Get Executed Cycles for Accelwattch-Hybrid from Accel-Sim
-accelwattch_hybrid_perfsim_VOLTAGE                    0 # Get Chip Voltage for Accelwattch-Hybrid from Accel-Sim
-power_trace_enabled                    0 # produce a file for the power trace (1=On, 0=Off)
-power_trace_zlevel                     6 # Compression level of the power trace output log (0=no comp, 9=highest)
-steady_power_levels_enabled                    0 # produce a file for the steady power levels (1=On, 0=Off)
-steady_state_definition                  8:4 # allowed deviation:number of samples
-gpgpu_max_cycle                        0 # terminates gpu simulation early (0 = no limit)
-gpgpu_max_insn                         0 # terminates gpu simulation early (0 = no limit)
-gpgpu_max_cta                          0 # terminates gpu simulation early (0 = no limit)
-gpgpu_max_completed_cta                    0 # terminates gpu simulation early (0 = no limit)
-gpgpu_runtime_stat                   500 # display runtime statistics such as dram utilization {<freq>:<flag>}
-liveness_message_freq                    1 # Minimum number of seconds between simulation liveness messages (0 = always print)
-gpgpu_compute_capability_major                    7 # Major compute capability version number
-gpgpu_compute_capability_minor                    5 # Minor compute capability version number
-gpgpu_flush_l1_cache                    1 # Flush L1 cache at the end of each kernel call
-gpgpu_flush_l2_cache                    0 # Flush L2 cache at the end of each kernel call
-gpgpu_deadlock_detect                    1 # Stop the simulation at deadlock (1=on (default), 0=off)
-gpgpu_ptx_instruction_classification                    0 # if enabled will classify ptx instruction types per kernel (Max 255 kernels now)
-gpgpu_ptx_sim_mode                     0 # Select between Performance (default) or Functional simulation (1)
-gpgpu_clock_domains 1905.0:1905.0:1905.0:3500.0 # Clock Domain Frequencies in MhZ {<Core Clock>:<ICNT Clock>:<L2 Clock>:<DRAM Clock>}
-gpgpu_max_concurrent_kernel                    8 # maximum kernels that can run concurrently on GPU
-gpgpu_cflog_interval                    0 # Interval between each snapshot in control flow logger
-visualizer_enabled                     0 # Turn on visualizer output (1=On, 0=Off)
-visualizer_outputfile                 NULL # Specifies the output log file for visualizer
-visualizer_zlevel                      6 # Compression level of the visualizer output log (0=no comp, 9=highest)
-gpgpu_stack_size_limit                 1024 # GPU thread stack size
-gpgpu_heap_size_limit              8388608 # GPU malloc heap size 
-gpgpu_runtime_sync_depth_limit                    2 # GPU device runtime synchronize depth
-gpgpu_runtime_pending_launch_count_limit                 2048 # GPU device runtime pending launch count
-trace_enabled                          0 # Turn on traces
-trace_components                    none # comma seperated list of traces to enable. Complete list found in trace_streams.tup. Default none
-trace_sampling_core                    0 # The core which is printed using CORE_DPRINTF. Default 0
-trace_sampling_memory_partition                   -1 # The memory partition which is printed using MEMPART_DPRINTF. Default -1 (i.e. all)
-enable_ptx_file_line_stats                    1 # Turn on PTX source line statistic profiling. (1 = On)
-ptx_line_stats_filename gpgpu_inst_stats.txt # Output file for PTX source line statistics.
-gpgpu_kernel_launch_latency                 5000 # Kernel launch latency in cycles. Default: 0
-gpgpu_cdp_enabled                      0 # Turn on CDP
-gpgpu_TB_launch_latency                    0 # thread block launch latency in cycles. Default: 0
-trace               ../../../../hw_run/rodinia_2.0-ft/11.0/hotspot-rodinia-2.0-ft/30_6_40___data_result_30_6_40_txt/traces/kernelslist.g # traces kernel filetraces kernel file directory
-trace_opcode_latency_initiation_int                  4,2 # Opcode latencies and initiation for integers in trace driven mode <latency,initiation>
-trace_opcode_latency_initiation_sp                  4,2 # Opcode latencies and initiation for sp in trace driven mode <latency,initiation>
-trace_opcode_latency_initiation_dp                  8,4 # Opcode latencies and initiation for dp in trace driven mode <latency,initiation>
-trace_opcode_latency_initiation_sfu                 20,8 # Opcode latencies and initiation for sfu in trace driven mode <latency,initiation>
-trace_opcode_latency_initiation_tensor                  8,4 # Opcode latencies and initiation for tensor in trace driven mode <latency,initiation>
-trace_opcode_latency_initiation_spec_op_1                  4,4 # specialized unit config <latency,initiation>
-trace_opcode_latency_initiation_spec_op_2                200,4 # specialized unit config <latency,initiation>
-trace_opcode_latency_initiation_spec_op_3                  8,4 # specialized unit config <latency,initiation>
-trace_opcode_latency_initiation_spec_op_4                  4,2 # specialized unit config <latency,initiation>
-trace_opcode_latency_initiation_spec_op_5                  4,4 # specialized unit config <latency,initiation>
-trace_opcode_latency_initiation_spec_op_6                  4,4 # specialized unit config <latency,initiation>
-trace_opcode_latency_initiation_spec_op_7                  4,4 # specialized unit config <latency,initiation>
-trace_opcode_latency_initiation_spec_op_8                  4,4 # specialized unit config <latency,initiation>
DRAM Timing Options:
nbk                                    16 # number of banks
CCD                                     4 # column to column delay
RRD                                    10 # minimal delay between activation of rows in different banks
RCD                                    20 # row to column delay
RAS                                    50 # time needed to activate row
RP                                     20 # time needed to precharge (deactivate) row
RC                                     62 # row cycle time
CDLR                                    9 # switching from write to read (changes tWTR)
WR                                     20 # last data-in to row precharge
CL                                     20 # CAS latency
WL                                      8 # Write latency
nbkgrp                                  4 # number of bank groups
CCDL                                    4 # column to column delay between accesses to different bank groups
RTPL                                    4 # read to precharge delay between accesses to different bank groups
Total number of memory sub partition = 32
addr_dec_mask[CHIP]  = 0000000000000f00 	high:12 low:8
addr_dec_mask[BK]    = 0000000000070080 	high:19 low:7
addr_dec_mask[ROW]   = 00000000fff80000 	high:32 low:19
addr_dec_mask[COL]   = 000000000000f07f 	high:16 low:0
addr_dec_mask[BURST] = 000000000000001f 	high:5 low:0
sub_partition_id_mask = 0000000000000080
GPGPU-Sim uArch: clock freqs: 1905000000.000000:1905000000.000000:1905000000.000000:3500000000.000000
GPGPU-Sim uArch: clock periods: 0.00000000052493438320:0.00000000052493438320:0.00000000052493438320:0.00000000028571428571
*** Initializing Memory Statistics ***
GPGPU-Sim uArch: performance model initialization complete.
launching memcpy command : MemcpyHtoD,0x00007f698b700000,3600
launching memcpy command : MemcpyHtoD,0x00007f698b701000,3600
Processing kernel ../../../../hw_run/rodinia_2.0-ft/11.0/hotspot-rodinia-2.0-ft/30_6_40___data_result_30_6_40_txt/traces/kernel-1.traceg
-kernel name = _Z14calculate_tempiPfS_iiiiffffff
-kernel id = 1
-grid dim = (8,8,1)
-block dim = (16,16,1)
-shmem = 3072
-nregs = 35
-binary version = 70
-cuda stream id = 0
-shmem base_addr = 0x00007f69c0000000
-local mem base_addr = 0x00007f69c2000000
-nvbit version = 1.4
-accelsim tracer version = 3
launching kernel command : ../../../../hw_run/rodinia_2.0-ft/11.0/hotspot-rodinia-2.0-ft/30_6_40___data_result_30_6_40_txt/traces/kernel-1.traceg
GPGPU-Sim uArch: Shader 0 bind to kernel 1 '_Z14calculate_tempiPfS_iiiiffffff'
GPGPU-Sim uArch: CTA/core = 4, limited by: threads
thread block = 0,0,0
GPGPU-Sim uArch: Shader 1 bind to kernel 1 '_Z14calculate_tempiPfS_iiiiffffff'
thread block = 1,0,0
GPGPU-Sim uArch: Shader 2 bind to kernel 1 '_Z14calculate_tempiPfS_iiiiffffff'
thread block = 2,0,0
GPGPU-Sim uArch: Shader 3 bind to kernel 1 '_Z14calculate_tempiPfS_iiiiffffff'
thread block = 3,0,0
GPGPU-Sim uArch: Shader 4 bind to kernel 1 '_Z14calculate_tempiPfS_iiiiffffff'
thread block = 4,0,0
GPGPU-Sim uArch: Shader 5 bind to kernel 1 '_Z14calculate_tempiPfS_iiiiffffff'
thread block = 5,0,0
GPGPU-Sim uArch: Shader 6 bind to kernel 1 '_Z14calculate_tempiPfS_iiiiffffff'
thread block = 6,0,0
GPGPU-Sim uArch: Shader 7 bind to kernel 1 '_Z14calculate_tempiPfS_iiiiffffff'
thread block = 7,0,0
GPGPU-Sim uArch: Shader 8 bind to kernel 1 '_Z14calculate_tempiPfS_iiiiffffff'
thread block = 0,1,0
GPGPU-Sim uArch: Shader 9 bind to kernel 1 '_Z14calculate_tempiPfS_iiiiffffff'
thread block = 1,1,0
GPGPU-Sim uArch: Shader 10 bind to kernel 1 '_Z14calculate_tempiPfS_iiiiffffff'
thread block = 2,1,0
GPGPU-Sim uArch: Shader 11 bind to kernel 1 '_Z14calculate_tempiPfS_iiiiffffff'
thread block = 3,1,0
GPGPU-Sim uArch: Shader 12 bind to kernel 1 '_Z14calculate_tempiPfS_iiiiffffff'
thread block = 4,1,0
GPGPU-Sim uArch: Shader 13 bind to kernel 1 '_Z14calculate_tempiPfS_iiiiffffff'
thread block = 5,1,0
GPGPU-Sim uArch: Shader 14 bind to kernel 1 '_Z14calculate_tempiPfS_iiiiffffff'
thread block = 6,1,0
GPGPU-Sim uArch: Shader 15 bind to kernel 1 '_Z14calculate_tempiPfS_iiiiffffff'
thread block = 7,1,0
GPGPU-Sim uArch: Shader 16 bind to kernel 1 '_Z14calculate_tempiPfS_iiiiffffff'
thread block = 0,2,0
GPGPU-Sim uArch: Shader 17 bind to kernel 1 '_Z14calculate_tempiPfS_iiiiffffff'
thread block = 1,2,0
GPGPU-Sim uArch: Shader 18 bind to kernel 1 '_Z14calculate_tempiPfS_iiiiffffff'
thread block = 2,2,0
GPGPU-Sim uArch: Shader 19 bind to kernel 1 '_Z14calculate_tempiPfS_iiiiffffff'
thread block = 3,2,0
GPGPU-Sim uArch: Shader 20 bind to kernel 1 '_Z14calculate_tempiPfS_iiiiffffff'
thread block = 4,2,0
GPGPU-Sim uArch: Shader 21 bind to kernel 1 '_Z14calculate_tempiPfS_iiiiffffff'
thread block = 5,2,0
GPGPU-Sim uArch: Shader 22 bind to kernel 1 '_Z14calculate_tempiPfS_iiiiffffff'
thread block = 6,2,0
GPGPU-Sim uArch: Shader 23 bind to kernel 1 '_Z14calculate_tempiPfS_iiiiffffff'
thread block = 7,2,0
GPGPU-Sim uArch: Shader 24 bind to kernel 1 '_Z14calculate_tempiPfS_iiiiffffff'
thread block = 0,3,0
GPGPU-Sim uArch: Shader 25 bind to kernel 1 '_Z14calculate_tempiPfS_iiiiffffff'
thread block = 1,3,0
GPGPU-Sim uArch: Shader 26 bind to kernel 1 '_Z14calculate_tempiPfS_iiiiffffff'
thread block = 2,3,0
GPGPU-Sim uArch: Shader 27 bind to kernel 1 '_Z14calculate_tempiPfS_iiiiffffff'
thread block = 3,3,0
GPGPU-Sim uArch: Shader 28 bind to kernel 1 '_Z14calculate_tempiPfS_iiiiffffff'
thread block = 4,3,0
GPGPU-Sim uArch: Shader 29 bind to kernel 1 '_Z14calculate_tempiPfS_iiiiffffff'
thread block = 5,3,0
GPGPU-Sim uArch: Shader 30 bind to kernel 1 '_Z14calculate_tempiPfS_iiiiffffff'
thread block = 6,3,0
GPGPU-Sim uArch: Shader 31 bind to kernel 1 '_Z14calculate_tempiPfS_iiiiffffff'
thread block = 7,3,0
GPGPU-Sim uArch: Shader 32 bind to kernel 1 '_Z14calculate_tempiPfS_iiiiffffff'
thread block = 0,4,0
GPGPU-Sim uArch: Shader 33 bind to kernel 1 '_Z14calculate_tempiPfS_iiiiffffff'
thread block = 1,4,0
thread block = 2,4,0
thread block = 3,4,0
thread block = 4,4,0
thread block = 5,4,0
thread block = 6,4,0
thread block = 7,4,0
thread block = 0,5,0
thread block = 1,5,0
thread block = 2,5,0
thread block = 3,5,0
thread block = 4,5,0
thread block = 5,5,0
thread block = 6,5,0
thread block = 7,5,0
thread block = 0,6,0
thread block = 1,6,0
thread block = 2,6,0
thread block = 3,6,0
thread block = 4,6,0
thread block = 5,6,0
thread block = 6,6,0
thread block = 7,6,0
thread block = 0,7,0
thread block = 1,7,0
thread block = 2,7,0
thread block = 3,7,0
thread block = 4,7,0
thread block = 5,7,0
thread block = 6,7,0
thread block = 7,7,0
Destroy streams for kernel 1: size 0
kernel_name = _Z14calculate_tempiPfS_iiiiffffff 
kernel_launch_uid = 1 
gpu_sim_cycle = 15391
gpu_sim_insn = 4853274
gpu_ipc =     315.3319
gpu_tot_sim_cycle = 15391
gpu_tot_stall_cycle = 60110
tot_cycles_exec_all_SM = 1399832
cycles_passed = 15391
gpu_tot_sim_insn = 4853274
gpu_tot_ipc =     315.3319
gpu_tot_issued_cta = 64
gpu_occupancy = 46.2806% 
gpu_tot_occupancy = 46.2806% 
max_total_param_size = 0
gpu_stall_dramfull = 2681
gpu_stall_icnt2sh    = 0
partiton_level_parallism =       0.3342
partiton_level_parallism_total  =       0.3342
partiton_level_parallism_util =       3.9200
partiton_level_parallism_util_total  =       3.9200
L2_BW  =      30.8741 GB/Sec
L2_BW_total  =      30.8741 GB/Sec
gpu_total_sim_rate=346662

========= Core cache stats =========
L1I_cache:
	L1I_total_cache_accesses = 93744
	L1I_total_cache_misses = 12747
	L1I_total_cache_miss_rate = 0.1360
	L1I_total_cache_pending_hits = 0
	L1I_total_cache_reservation_fails = 0
L1D_cache:
	L1D_cache_core[0]: Access = 137, Miss = 129, Miss_rate = 0.942, Pending_hits = 0, Reservation_fails = 136
	L1D_cache_core[1]: Access = 150, Miss = 140, Miss_rate = 0.933, Pending_hits = 0, Reservation_fails = 163
	L1D_cache_core[2]: Access = 152, Miss = 142, Miss_rate = 0.934, Pending_hits = 0, Reservation_fails = 177
	L1D_cache_core[3]: Access = 154, Miss = 144, Miss_rate = 0.935, Pending_hits = 0, Reservation_fails = 180
	L1D_cache_core[4]: Access = 140, Miss = 131, Miss_rate = 0.936, Pending_hits = 0, Reservation_fails = 150
	L1D_cache_core[5]: Access = 113, Miss = 106, Miss_rate = 0.938, Pending_hits = 0, Reservation_fails = 120
	L1D_cache_core[6]: Access = 112, Miss = 105, Miss_rate = 0.938, Pending_hits = 0, Reservation_fails = 97
	L1D_cache_core[7]: Access = 123, Miss = 116, Miss_rate = 0.943, Pending_hits = 0, Reservation_fails = 114
	L1D_cache_core[8]: Access = 147, Miss = 139, Miss_rate = 0.946, Pending_hits = 0, Reservation_fails = 148
	L1D_cache_core[9]: Access = 171, Miss = 161, Miss_rate = 0.942, Pending_hits = 0, Reservation_fails = 192
	L1D_cache_core[10]: Access = 174, Miss = 164, Miss_rate = 0.943, Pending_hits = 0, Reservation_fails = 201
	L1D_cache_core[11]: Access = 176, Miss = 166, Miss_rate = 0.943, Pending_hits = 0, Reservation_fails = 210
	L1D_cache_core[12]: Access = 162, Miss = 153, Miss_rate = 0.944, Pending_hits = 0, Reservation_fails = 178
	L1D_cache_core[13]: Access = 135, Miss = 128, Miss_rate = 0.948, Pending_hits = 0, Reservation_fails = 144
	L1D_cache_core[14]: Access = 117, Miss = 110, Miss_rate = 0.940, Pending_hits = 0, Reservation_fails = 106
	L1D_cache_core[15]: Access = 114, Miss = 107, Miss_rate = 0.939, Pending_hits = 0, Reservation_fails = 97
	L1D_cache_core[16]: Access = 132, Miss = 124, Miss_rate = 0.939, Pending_hits = 0, Reservation_fails = 114
	L1D_cache_core[17]: Access = 160, Miss = 150, Miss_rate = 0.938, Pending_hits = 0, Reservation_fails = 172
	L1D_cache_core[18]: Access = 164, Miss = 154, Miss_rate = 0.939, Pending_hits = 0, Reservation_fails = 206
	L1D_cache_core[19]: Access = 164, Miss = 154, Miss_rate = 0.939, Pending_hits = 0, Reservation_fails = 210
	L1D_cache_core[20]: Access = 155, Miss = 146, Miss_rate = 0.942, Pending_hits = 0, Reservation_fails = 182
	L1D_cache_core[21]: Access = 133, Miss = 126, Miss_rate = 0.947, Pending_hits = 0, Reservation_fails = 139
	L1D_cache_core[22]: Access = 112, Miss = 106, Miss_rate = 0.946, Pending_hits = 0, Reservation_fails = 95
	L1D_cache_core[23]: Access = 96, Miss = 92, Miss_rate = 0.958, Pending_hits = 0, Reservation_fails = 79
	L1D_cache_core[24]: Access = 108, Miss = 102, Miss_rate = 0.944, Pending_hits = 0, Reservation_fails = 76
	L1D_cache_core[25]: Access = 135, Miss = 128, Miss_rate = 0.948, Pending_hits = 0, Reservation_fails = 128
	L1D_cache_core[26]: Access = 140, Miss = 132, Miss_rate = 0.943, Pending_hits = 0, Reservation_fails = 157
	L1D_cache_core[27]: Access = 139, Miss = 132, Miss_rate = 0.950, Pending_hits = 0, Reservation_fails = 174
	L1D_cache_core[28]: Access = 134, Miss = 127, Miss_rate = 0.948, Pending_hits = 0, Reservation_fails = 149
	L1D_cache_core[29]: Access = 119, Miss = 113, Miss_rate = 0.950, Pending_hits = 0, Reservation_fails = 138
	L1D_cache_core[30]: Access = 81, Miss = 77, Miss_rate = 0.951, Pending_hits = 0, Reservation_fails = 71
	L1D_cache_core[31]: Access = 52, Miss = 50, Miss_rate = 0.962, Pending_hits = 0, Reservation_fails = 29
	L1D_cache_core[32]: Access = 61, Miss = 58, Miss_rate = 0.951, Pending_hits = 0, Reservation_fails = 25
	L1D_cache_core[33]: Access = 89, Miss = 84, Miss_rate = 0.944, Pending_hits = 0, Reservation_fails = 80
	L1D_total_cache_accesses = 4451
	L1D_total_cache_misses = 4196
	L1D_total_cache_miss_rate = 0.9427
	L1D_total_cache_pending_hits = 0
	L1D_total_cache_reservation_fails = 4637
	L1D_cache_data_port_util = 0.001
	L1D_cache_fill_port_util = 0.011
L1C_cache:
	L1C_total_cache_accesses = 0
	L1C_total_cache_misses = 0
	L1C_total_cache_pending_hits = 0
	L1C_total_cache_reservation_fails = 0
L1T_cache:
	L1T_total_cache_accesses = 0
	L1T_total_cache_misses = 0
	L1T_total_cache_pending_hits = 0
	L1T_total_cache_reservation_fails = 0

Total_core_cache_stats:
	Total_core_cache_stats_breakdown[GLOBAL_ACC_R][HIT] = 0
	Total_core_cache_stats_breakdown[GLOBAL_ACC_R][HIT_RESERVED] = 0
	Total_core_cache_stats_breakdown[GLOBAL_ACC_R][MISS] = 3585
	Total_core_cache_stats_breakdown[GLOBAL_ACC_R][RESERVATION_FAIL] = 4637
	Total_core_cache_stats_breakdown[GLOBAL_ACC_R][SECTOR_MISS] = 573
	Total_core_cache_stats_breakdown[GLOBAL_ACC_R][MSHR_HIT] = 192
	Total_core_cache_stats_breakdown[LOCAL_ACC_R][HIT] = 0
	Total_core_cache_stats_breakdown[LOCAL_ACC_R][HIT_RESERVED] = 0
	Total_core_cache_stats_breakdown[LOCAL_ACC_R][MISS] = 0
	Total_core_cache_stats_breakdown[LOCAL_ACC_R][RESERVATION_FAIL] = 0
	Total_core_cache_stats_breakdown[LOCAL_ACC_R][SECTOR_MISS] = 0
	Total_core_cache_stats_breakdown[LOCAL_ACC_R][MSHR_HIT] = 0
	Total_core_cache_stats_breakdown[CONST_ACC_R][HIT] = 0
	Total_core_cache_stats_breakdown[CONST_ACC_R][HIT_RESERVED] = 0
	Total_core_cache_stats_breakdown[CONST_ACC_R][MISS] = 0
	Total_core_cache_stats_breakdown[CONST_ACC_R][RESERVATION_FAIL] = 0
	Total_core_cache_stats_breakdown[CONST_ACC_R][SECTOR_MISS] = 0
	Total_core_cache_stats_breakdown[CONST_ACC_R][MSHR_HIT] = 0
	Total_core_cache_stats_breakdown[TEXTURE_ACC_R][HIT] = 0
	Total_core_cache_stats_breakdown[TEXTURE_ACC_R][HIT_RESERVED] = 0
	Total_core_cache_stats_breakdown[TEXTURE_ACC_R][MISS] = 0
	Total_core_cache_stats_breakdown[TEXTURE_ACC_R][RESERVATION_FAIL] = 0
	Total_core_cache_stats_breakdown[TEXTURE_ACC_R][SECTOR_MISS] = 0
	Total_core_cache_stats_breakdown[TEXTURE_ACC_R][MSHR_HIT] = 0
	Total_core_cache_stats_breakdown[GLOBAL_ACC_W][HIT] = 255
	Total_core_cache_stats_breakdown[GLOBAL_ACC_W][HIT_RESERVED] = 0
	Total_core_cache_stats_breakdown[GLOBAL_ACC_W][MISS] = 13
	Total_core_cache_stats_breakdown[GLOBAL_ACC_W][RESERVATION_FAIL] = 0
	Total_core_cache_stats_breakdown[GLOBAL_ACC_W][SECTOR_MISS] = 25
	Total_core_cache_stats_breakdown[GLOBAL_ACC_W][MSHR_HIT] = 0
	Total_core_cache_stats_breakdown[LOCAL_ACC_W][HIT] = 0
	Total_core_cache_stats_breakdown[LOCAL_ACC_W][HIT_RESERVED] = 0
	Total_core_cache_stats_breakdown[LOCAL_ACC_W][MISS] = 0
	Total_core_cache_stats_breakdown[LOCAL_ACC_W][RESERVATION_FAIL] = 0
	Total_core_cache_stats_breakdown[LOCAL_ACC_W][SECTOR_MISS] = 0
	Total_core_cache_stats_breakdown[LOCAL_ACC_W][MSHR_HIT] = 0
	Total_core_cache_stats_breakdown[L1_WRBK_ACC][HIT] = 0
	Total_core_cache_stats_breakdown[L1_WRBK_ACC][HIT_RESERVED] = 0
	Total_core_cache_stats_breakdown[L1_WRBK_ACC][MISS] = 0
	Total_core_cache_stats_breakdown[L1_WRBK_ACC][RESERVATION_FAIL] = 0
	Total_core_cache_stats_breakdown[L1_WRBK_ACC][SECTOR_MISS] = 0
	Total_core_cache_stats_breakdown[L1_WRBK_ACC][MSHR_HIT] = 0
	Total_core_cache_stats_breakdown[L2_WRBK_ACC][HIT] = 0
	Total_core_cache_stats_breakdown[L2_WRBK_ACC][HIT_RESERVED] = 0
	Total_core_cache_stats_breakdown[L2_WRBK_ACC][MISS] = 0
	Total_core_cache_stats_breakdown[L2_WRBK_ACC][RESERVATION_FAIL] = 0
	Total_core_cache_stats_breakdown[L2_WRBK_ACC][SECTOR_MISS] = 0
	Total_core_cache_stats_breakdown[L2_WRBK_ACC][MSHR_HIT] = 0
	Total_core_cache_stats_breakdown[INST_ACC_R][HIT] = 80997
	Total_core_cache_stats_breakdown[INST_ACC_R][HIT_RESERVED] = 0
	Total_core_cache_stats_breakdown[INST_ACC_R][MISS] = 12747
	Total_core_cache_stats_breakdown[INST_ACC_R][RESERVATION_FAIL] = 0
	Total_core_cache_stats_breakdown[INST_ACC_R][SECTOR_MISS] = 0
	Total_core_cache_stats_breakdown[INST_ACC_R][MSHR_HIT] = 11863
	Total_core_cache_stats_breakdown[L1_WR_ALLOC_R][HIT] = 0
	Total_core_cache_stats_breakdown[L1_WR_ALLOC_R][HIT_RESERVED] = 0
	Total_core_cache_stats_breakdown[L1_WR_ALLOC_R][MISS] = 0
	Total_core_cache_stats_breakdown[L1_WR_ALLOC_R][RESERVATION_FAIL] = 0
	Total_core_cache_stats_breakdown[L1_WR_ALLOC_R][SECTOR_MISS] = 0
	Total_core_cache_stats_breakdown[L1_WR_ALLOC_R][MSHR_HIT] = 0
	Total_core_cache_stats_breakdown[L2_WR_ALLOC_R][HIT] = 0
	Total_core_cache_stats_breakdown[L2_WR_ALLOC_R][HIT_RESERVED] = 0
	Total_core_cache_stats_breakdown[L2_WR_ALLOC_R][MISS] = 0
	Total_core_cache_stats_breakdown[L2_WR_ALLOC_R][RESERVATION_FAIL] = 0
	Total_core_cache_stats_breakdown[L2_WR_ALLOC_R][SECTOR_MISS] = 0
	Total_core_cache_stats_breakdown[L2_WR_ALLOC_R][MSHR_HIT] = 0
	Total_core_cache_stats_breakdown[GLOBAL_ACC_R][TOTAL_ACCESS] = 4350
	Total_core_cache_stats_breakdown[GLOBAL_ACC_W][TOTAL_ACCESS] = 293
	Total_core_cache_stats_breakdown[INST_ACC_R][TOTAL_ACCESS] = 105607

Total_core_cache_fail_stats:
	Total_core_cache_fail_stats_breakdown[GLOBAL_ACC_R][MISS_QUEUE_FULL] = 4637
ctas_completed 64, Shader 0 warp_id issue ditsribution:
warp_id:
0, 1, 2, 3, 4, 5, 6, 7, 8, 9, 10, 11, 12, 13, 14, 15, 
distro:
279, 279, 279, 438, 438, 409, 357, 305, 305, 357, 409, 438, 438, 409, 357, 305, 
gpgpu_n_tot_thrd_icount = 4853274
gpgpu_n_tot_w_icount = 187096
gpgpu_n_stall_shd_mem = 4812
gpgpu_n_mem_read_local = 0
gpgpu_n_mem_write_local = 0
gpgpu_n_mem_read_global = 3966
gpgpu_n_mem_write_global = 293
gpgpu_n_mem_texture = 0
gpgpu_n_mem_const = 0
gpgpu_n_load_insn  = 23328
gpgpu_n_store_insn = 900
gpgpu_n_shmem_insn = 270045
gpgpu_n_sstarr_insn = 0
gpgpu_n_tex_insn = 0
gpgpu_n_const_mem_insn = 0
gpgpu_n_param_mem_insn = 0
gpgpu_n_shmem_bkconflict = 0
gpgpu_n_cache_bkconflict = 0
gpgpu_n_intrawarp_mshr_merge = 0
gpgpu_n_cmem_portconflict = 0
gpgpu_stall_shd_mem[c_mem][resource_stall] = 0
gpgpu_stall_shd_mem[s_mem][bk_conf] = 2920
gpgpu_stall_shd_mem[gl_mem][resource_stall] = 1892
gpgpu_stall_shd_mem[gl_mem][coal_stall] = 0
gpgpu_stall_shd_mem[gl_mem][data_port_stall] = 0
gpu_reg_bank_conflict_stalls = 0
Warp Occupancy Distribution:
Stall:70174	W0_Idle:1009828	W0_Scoreboard:142798	W1:0	W2:0	W3:392	W4:771	W5:756	W6:2856	W7:700	W8:4277	W9:700	W10:3136	W11:336	W12:4882	W13:336	W14:3474	W15:0	W16:6750	W17:0	W18:2226	W19:24	W20:5828	W21:24	W22:1394	W23:50	W24:6523	W25:50	W26:1374	W27:54	W28:5019	W29:28	W30:0	W31:0	W32:125072
single_issue_nums: WS0:45864	WS1:47360	WS2:46736	WS3:47136	
dual_issue_nums: WS0:0	WS1:0	WS2:0	WS3:0	
traffic_breakdown_coretomem[GLOBAL_ACC_R] = 31728 {8:3966,}
traffic_breakdown_coretomem[GLOBAL_ACC_W] = 11720 {40:293,}
traffic_breakdown_coretomem[INST_ACC_R] = 7072 {8:884,}
traffic_breakdown_memtocore[GLOBAL_ACC_R] = 158640 {40:3966,}
traffic_breakdown_memtocore[GLOBAL_ACC_W] = 2344 {8:293,}
traffic_breakdown_memtocore[INST_ACC_R] = 141440 {40:3536,}
ENTERING ACCELSIM HERE
maxmflatency = 477 
max_icnt2mem_latency = 188 
maxmrqlatency = 13 
max_icnt2sh_latency = 43 
averagemflatency = 270 
avg_icnt2mem_latency = 98 
avg_mrq_latency = 8 
avg_icnt2sh_latency = 7 
mrq_lat_table:29 	1 	0 	78 	0 	0 	0 	0 	0 	0 	0 	0 	0 	0 	0 	0 	0 	0 	0 	0 	0 	0 	0 	0 	0 	0 	0 	0 	0 	0 	0 	0 	
dq_lat_table:0 	0 	0 	0 	0 	0 	0 	0 	0 	0 	0 	0 	0 	0 	0 	0 	0 	0 	0 	0 	0 	0 	0 	0 	0 	0 	0 	0 	0 	0 	0 	0 	
mf_lat_table:0 	0 	0 	0 	0 	0 	0 	1845 	2414 	0 	0 	0 	0 	0 	0 	0 	0 	0 	0 	0 	0 	0 	0 	0 	0 	0 	0 	0 	0 	0 	0 	0 	
icnt2mem_lat_table:0 	815 	12 	10 	495 	894 	1998 	919 	0 	0 	0 	0 	0 	0 	0 	0 	0 	0 	0 	0 	0 	0 	0 	0 	
icnt2sh_lat_table:0 	1753 	1226 	770 	471 	39 	0 	0 	0 	0 	0 	0 	0 	0 	0 	0 	0 	0 	0 	0 	0 	0 	0 	0 	
mf_lat_pw_table:0 	0 	0 	0 	0 	0 	0 	0 	1 	0 	0 	0 	0 	0 	0 	0 	0 	0 	0 	0 	0 	0 	0 	0 	0 	0 	0 	0 	0 	0 	0 	0 	
maximum concurrent accesses to same row:
dram[0]:         4         0         0         0         0         0         0         0         0         0         0         0         0         0         0         0 
dram[1]:         0         0         0         0         0         0         0         0         0         0         0         0         0         0         0         0 
dram[2]:         0         0         0         0         0         0         0         0         0         0         0         0         0         0         0         0 
dram[3]:         0         0         0         0         0         0         0         0         0         0         0         0         0         0         0         0 
dram[4]:         0         0         0         0         0         0         0         0         0         0         0         0         0         0         0         0 
dram[5]:         0         0         0         0         0         0         0         0         0         0         0         0         0         0         0         0 
dram[6]:         0         0         0         0         0         0         0         0         0         0         0         0         0         0         0         0 
dram[7]:         0         0         0         0         0         0         0         0         0         0         0         0         0         0         0         0 
dram[8]:         0         0         0         0         0         0         0         0         0         0         0         0         0         0         0         0 
dram[9]:         0         0         0         0         0         0         0         0         0         0         0         0         0         0         0         0 
dram[10]:         0         0         0         0         0         0         0         0         0         0         0         0         0         0         0         0 
dram[11]:         0         0         0         0         0         0         0         0         0         0         0         0         0         0         0         0 
dram[12]:         0         0         0         0         0         0         0         0         0         0         0         0         0         0         0         0 
dram[13]:         0         0         0         0         0         0         0         0         0         0         0         0         0         0         0         0 
dram[14]:         0         0         0         0         0         0         0         0         0         0         0         0         0         0         0         0 
dram[15]:         0         0         0         0         0         0         0         0         0         0         0         0         0         0         0         0 
maximum service time to same row:
dram[0]:      5266      5618         0         0         0         0         0         0         0         0         0         0         0         0         0         0 
dram[1]:      5968      6319         0         0         0         0         0         0         0         0         0         0         0         0         0         0 
dram[2]:      6688      7023         0         0         0         0         0         0         0         0         0         0         0         0         0         0 
dram[3]:      7357      7679         0         0         0         0         0         0         0         0         0         0         0         0         0         0 
dram[4]:      9001      9355         0         0         0         0         0         0         0         0         0         0         0         0         0         0 
dram[5]:      9665      9990         0         0         0         0         0         0         0         0         0         0         0         0         0         0 
dram[6]:     10345     10658         0         0         0         0         0         0         0         0         0         0         0         0         0         0 
dram[7]:     10996     11327         0         0         0         0         0         0         0         0         0         0         0         0         0         0 
dram[8]:     11651     11981         0         0         0         0         0         0         0         0         0         0         0         0         0         0 
dram[9]:     12319     12659         0         0         0         0         0         0         0         0         0         0         0         0         0         0 
dram[10]:     12284     13057         0         0         0         0         0         0         0         0         0         0         0         0         0         0 
dram[11]:     13709         0         0         0         0         0         0         0         0         0         0         0         0         0         0         0 
dram[12]:         0         0         0         0         0         0         0         0         0         0         0         0         0         0         0         0 
dram[13]:         0         0         0         0         0         0         0         0         0         0         0         0         0         0         0         0 
dram[14]:         0      7984         0         0         0         0         0         0         0         0         0         0         0         0         0         0 
dram[15]:      8322      8668         0         0         0         0         0         0         0         0         0         0         0         0         0      6649 
average row accesses per activate:
dram[0]:  1.750000  4.000000      -nan      -nan      -nan      -nan      -nan      -nan      -nan      -nan      -nan      -nan      -nan      -nan      -nan      -nan 
dram[1]:  4.000000  4.000000      -nan      -nan      -nan      -nan      -nan      -nan      -nan      -nan      -nan      -nan      -nan      -nan      -nan      -nan 
dram[2]:  4.000000  4.000000      -nan      -nan      -nan      -nan      -nan      -nan      -nan      -nan      -nan      -nan      -nan      -nan      -nan      -nan 
dram[3]:  4.000000  4.000000      -nan      -nan      -nan      -nan      -nan      -nan      -nan      -nan      -nan      -nan      -nan      -nan      -nan      -nan 
dram[4]:  4.000000  4.000000      -nan      -nan      -nan      -nan      -nan      -nan      -nan      -nan      -nan      -nan      -nan      -nan      -nan      -nan 
dram[5]:  4.000000  4.000000      -nan      -nan      -nan      -nan      -nan      -nan      -nan      -nan      -nan      -nan      -nan      -nan      -nan      -nan 
dram[6]:  4.000000  4.000000      -nan      -nan      -nan      -nan      -nan      -nan      -nan      -nan      -nan      -nan      -nan      -nan      -nan      -nan 
dram[7]:  4.000000  4.000000      -nan      -nan      -nan      -nan      -nan      -nan      -nan      -nan      -nan      -nan      -nan      -nan      -nan      -nan 
dram[8]:  4.000000  4.000000      -nan      -nan      -nan      -nan      -nan      -nan      -nan      -nan      -nan      -nan      -nan      -nan      -nan      -nan 
dram[9]:  4.000000  4.000000      -nan      -nan      -nan      -nan      -nan      -nan      -nan      -nan      -nan      -nan      -nan      -nan      -nan      -nan 
dram[10]:  4.000000  4.000000      -nan      -nan      -nan      -nan      -nan      -nan      -nan      -nan      -nan      -nan      -nan      -nan      -nan      -nan 
dram[11]:  4.000000      -nan      -nan      -nan      -nan      -nan      -nan      -nan      -nan      -nan      -nan      -nan      -nan      -nan      -nan      -nan 
dram[12]:      -nan      -nan      -nan      -nan      -nan      -nan      -nan      -nan      -nan      -nan      -nan      -nan      -nan      -nan      -nan      -nan 
dram[13]:      -nan      -nan      -nan      -nan      -nan      -nan      -nan      -nan      -nan      -nan      -nan      -nan      -nan      -nan      -nan      -nan 
dram[14]:      -nan  4.000000      -nan      -nan      -nan      -nan      -nan      -nan      -nan      -nan      -nan      -nan      -nan      -nan      -nan      -nan 
dram[15]:  4.000000  4.000000      -nan      -nan      -nan      -nan      -nan      -nan      -nan      -nan      -nan      -nan      -nan      -nan      -nan  1.000000 
average row locality = 108/30 = 3.600000
number of total memory accesses made:
dram[0]:         0         0         0         0         0         0         0         0         0         0         0         0         0         0         0         0 
dram[1]:         0         0         0         0         0         0         0         0         0         0         0         0         0         0         0         0 
dram[2]:         0         0         0         0         0         0         0         0         0         0         0         0         0         0         0         0 
dram[3]:         0         0         0         0         0         0         0         0         0         0         0         0         0         0         0         0 
dram[4]:         0         0         0         0         0         0         0         0         0         0         0         0         0         0         0         0 
dram[5]:         0         0         0         0         0         0         0         0         0         0         0         0         0         0         0         0 
dram[6]:         0         0         0         0         0         0         0         0         0         0         0         0         0         0         0         0 
dram[7]:         0         0         0         0         0         0         0         0         0         0         0         0         0         0         0         0 
dram[8]:         0         0         0         0         0         0         0         0         0         0         0         0         0         0         0         0 
dram[9]:         0         0         0         0         0         0         0         0         0         0         0         0         0         0         0         0 
dram[10]:         0         0         0         0         0         0         0         0         0         0         0         0         0         0         0         0 
dram[11]:         0         0         0         0         0         0         0         0         0         0         0         0         0         0         0         0 
dram[12]:         0         0         0         0         0         0         0         0         0         0         0         0         0         0         0         0 
dram[13]:         0         0         0         0         0         0         0         0         0         0         0         0         0         0         0         0 
dram[14]:         0         0         0         0         0         0         0         0         0         0         0         0         0         0         0         0 
dram[15]:         0         0         0         0         0         0         0         0         0         0         0         0         0         0         0         0 
total accesses: 0
min_bank_accesses = 0!
min_chip_accesses = 0!
number of total read accesses:
dram[0]:         7         4         0         0         0         0         0         0         0         0         0         0         0         0         0         0 
dram[1]:         4         4         0         0         0         0         0         0         0         0         0         0         0         0         0         0 
dram[2]:         4         4         0         0         0         0         0         0         0         0         0         0         0         0         0         0 
dram[3]:         4         4         0         0         0         0         0         0         0         0         0         0         0         0         0         0 
dram[4]:         4         4         0         0         0         0         0         0         0         0         0         0         0         0         0         0 
dram[5]:         4         4         0         0         0         0         0         0         0         0         0         0         0         0         0         0 
dram[6]:         4         4         0         0         0         0         0         0         0         0         0         0         0         0         0         0 
dram[7]:         4         4         0         0         0         0         0         0         0         0         0         0         0         0         0         0 
dram[8]:         4         4         0         0         0         0         0         0         0         0         0         0         0         0         0         0 
dram[9]:         4         4         0         0         0         0         0         0         0         0         0         0         0         0         0         0 
dram[10]:         4         4         0         0         0         0         0         0         0         0         0         0         0         0         0         0 
dram[11]:         4         0         0         0         0         0         0         0         0         0         0         0         0         0         0         0 
dram[12]:         0         0         0         0         0         0         0         0         0         0         0         0         0         0         0         0 
dram[13]:         0         0         0         0         0         0         0         0         0         0         0         0         0         0         0         0 
dram[14]:         0         4         0         0         0         0         0         0         0         0         0         0         0         0         0         0 
dram[15]:         4         4         0         0         0         0         0         0         0         0         0         0         0         0         0         1 
total dram reads = 108
min_bank_accesses = 0!
min_chip_accesses = 0!
number of total write accesses:
dram[0]:         0         0         0         0         0         0         0         0         0         0         0         0         0         0         0         0 
dram[1]:         0         0         0         0         0         0         0         0         0         0         0         0         0         0         0         0 
dram[2]:         0         0         0         0         0         0         0         0         0         0         0         0         0         0         0         0 
dram[3]:         0         0         0         0         0         0         0         0         0         0         0         0         0         0         0         0 
dram[4]:         0         0         0         0         0         0         0         0         0         0         0         0         0         0         0         0 
dram[5]:         0         0         0         0         0         0         0         0         0         0         0         0         0         0         0         0 
dram[6]:         0         0         0         0         0         0         0         0         0         0         0         0         0         0         0         0 
dram[7]:         0         0         0         0         0         0         0         0         0         0         0         0         0         0         0         0 
dram[8]:         0         0         0         0         0         0         0         0         0         0         0         0         0         0         0         0 
dram[9]:         0         0         0         0         0         0         0         0         0         0         0         0         0         0         0         0 
dram[10]:         0         0         0         0         0         0         0         0         0         0         0         0         0         0         0         0 
dram[11]:         0         0         0         0         0         0         0         0         0         0         0         0         0         0         0         0 
dram[12]:         0         0         0         0         0         0         0         0         0         0         0         0         0         0         0         0 
dram[13]:         0         0         0         0         0         0         0         0         0         0         0         0         0         0         0         0 
dram[14]:         0         0         0         0         0         0         0         0         0         0         0         0         0         0         0         0 
dram[15]:         0         0         0         0         0         0         0         0         0         0         0         0         0         0         0         0 
total dram writes = 0
min_bank_accesses = 0!
min_chip_accesses = 0!
average mf latency per bank:
dram[0]:       4887      4824    none      none      none      none      none      none      none      none      none      none      none      none      none      none  
dram[1]:       8641      7156    none      none      none      none      none      none      none      none      none      none      none      none      none      none  
dram[2]:      11425      8274    none      none      none      none      none      none      none      none      none      none      none      none      none      none  
dram[3]:      11456     10057    none      none      none      none      none      none      none      none      none      none      none      none      none      none  
dram[4]:      10109     10813    none      none      none      none      none      none      none      none      none      none      none      none      none      none  
dram[5]:      11520     10968    none      none      none      none      none      none      none      none      none      none      none      none      none      none  
dram[6]:       9697     11807    none      none      none      none      none      none      none      none      none      none      none      none      none      none  
dram[7]:      10445     12086    none      none      none      none      none      none      none      none      none      none      none      none      none      none  
dram[8]:       9307     11930    none      none      none      none      none      none      none      none      none      none      none      none      none      none  
dram[9]:       9825     12645    none      none      none      none      none      none      none      none      none      none      none      none      none      none  
dram[10]:      10040     11909    none      none      none      none      none      none      none      none      none      none      none      none      none      none  
dram[11]:      10995    none      none      none      none      none      none      none      none      none      none      none      none      none      none      none  
dram[12]:     none      none      none      none      none      none      none      none      none      none      none      none      none      none      none      none  
dram[13]:     none      none      none      none      none      none      none      none      none      none      none      none      none      none      none      none  
dram[14]:     none           0    none      none      none      none      none      none      none      none      none      none      none      none      none      none  
dram[15]:          0         0    none      none      none      none      none      none      none      none      none      none      none      none      none        1210
maximum mf latency per bank:
dram[0]:        474       344         0         0         0         0         0         0         0         0         0         0         0         0         0         0
dram[1]:        346       344         0         0         0         0         0         0         0         0         0         0         0         0         0         0
dram[2]:        477       350         0         0         0         0         0         0         0         0         0         0         0         0         0         0
dram[3]:        361       355         0         0         0         0         0         0         0         0         0         0         0         0         0         0
dram[4]:        356       359         0         0         0         0         0         0         0         0         0         0         0         0         0         0
dram[5]:        356       366         0         0         0         0         0         0         0         0         0         0         0         0         0         0
dram[6]:        342       388         0         0         0         0         0         0         0         0         0         0         0         0         0         0
dram[7]:        354       363         0         0         0         0         0         0         0         0         0         0         0         0         0         0
dram[8]:        347       364         0         0         0         0         0         0         0         0         0         0         0         0         0         0
dram[9]:        355       374         0         0         0         0         0         0         0         0         0         0         0         0         0         0
dram[10]:        359       362         0         0         0         0         0         0         0         0         0         0         0         0         0         0
dram[11]:        351       367         0         0         0         0         0         0         0         0         0         0         0         0         0         0
dram[12]:        352       375         0         0         0         0         0         0         0         0         0         0         0         0         0         0
dram[13]:        373       358         0         0         0         0         0         0         0         0         0         0         0         0         0         0
dram[14]:        282         0         0         0         0         0         0         0         0         0         0         0         0         0         0         0
dram[15]:          0         0         0         0         0         0         0         0         0         0         0         0         0         0         0       316
Memory Partition 0: 
Cache L2_bank_000:
MSHR contents

Cache L2_bank_001:
MSHR contents

In Dram Latency Queue (total = 0): 
DRAM[0]: 16 bks, busW=2 BL=16 CL=20, tRRD=10 tCCD=4, tRCD=20 tRAS=50 tRP=20 tRC=62
n_cmd=28276 n_nop=28257 n_act=5 n_pre=3 n_ref_event=0 n_req=11 n_rd=11 n_rd_L2_A=0 n_write=0 n_wr_bk=0 bw_util=0.001556
n_activity=358 dram_eff=0.1229
bk0: 7a 28099i bk1: 4a 28244i bk2: 0a 28274i bk3: 0a 28274i bk4: 0a 28274i bk5: 0a 28275i bk6: 0a 28276i bk7: 0a 28276i bk8: 0a 28276i bk9: 0a 28276i bk10: 0a 28276i bk11: 0a 28276i bk12: 0a 28277i bk13: 0a 28277i bk14: 0a 28277i bk15: 0a 28278i 

------------------------------------------------------------------------

Row_Buffer_Locality = 0.545455
Row_Buffer_Locality_read = 0.545455
Row_Buffer_Locality_write = -nan
Bank_Level_Parallism = 1.000000
Bank_Level_Parallism_Col = 0.000000
Bank_Level_Parallism_Ready = 1.000000
write_to_read_ratio_blp_rw_average = 0.000000
GrpLevelPara = 0.000000 

BW Util details:
bwutil = 0.001556 
total_CMD = 28276 
util_bw = 44 
Wasted_Col = 100 
Wasted_Row = 86 
Idle = 28046 

BW Util Bottlenecks: 
RCDc_limit = 100 
RCDWRc_limit = 0 
WTRc_limit = 0 
RTWc_limit = 0 
CCDLc_limit = 0 
rwq = 0 
CCDLc_limit_alone = 0 
WTRc_limit_alone = 0 
RTWc_limit_alone = 0 

Commands details: 
total_CMD = 28276 
n_nop = 28257 
Read = 11 
Write = 0 
L2_Alloc = 0 
L2_WB = 0 
n_act = 5 
n_pre = 3 
n_ref = 0 
n_req = 11 
total_req = 11 

Dual Bus Interface Util: 
issued_total_row = 8 
issued_total_col = 11 
Row_Bus_Util =  0.000283 
CoL_Bus_Util = 0.000389 
Either_Row_CoL_Bus_Util = 0.000672 
Issued_on_Two_Bus_Simul_Util = 0.000000 
issued_two_Eff = 0.000000 
queue_avg = 0.004739 


dram_util_bins: 0 0 0 0 0 0 0 0 0 0
dram_eff_bins: 0 0 0 0 0 0 0 0 0 0
mrqq: max=3 avg=0.004739
Memory Partition 1: 
Cache L2_bank_002:
MSHR contents

Cache L2_bank_003:
MSHR contents

In Dram Latency Queue (total = 0): 
DRAM[1]: 16 bks, busW=2 BL=16 CL=20, tRRD=10 tCCD=4, tRCD=20 tRAS=50 tRP=20 tRC=62
n_cmd=28276 n_nop=28266 n_act=2 n_pre=0 n_ref_event=4565638765957434729 n_req=8 n_rd=8 n_rd_L2_A=0 n_write=0 n_wr_bk=0 bw_util=0.001132
n_activity=124 dram_eff=0.2581
bk0: 4a 28248i bk1: 4a 28247i bk2: 0a 28275i bk3: 0a 28275i bk4: 0a 28275i bk5: 0a 28276i bk6: 0a 28276i bk7: 0a 28276i bk8: 0a 28276i bk9: 0a 28276i bk10: 0a 28276i bk11: 0a 28276i bk12: 0a 28276i bk13: 0a 28276i bk14: 0a 28276i bk15: 0a 28277i 

------------------------------------------------------------------------

Row_Buffer_Locality = 0.750000
Row_Buffer_Locality_read = 0.750000
Row_Buffer_Locality_write = -nan
Bank_Level_Parallism = 1.000000
Bank_Level_Parallism_Col = 362.826080
Bank_Level_Parallism_Ready = 1.000000
write_to_read_ratio_blp_rw_average = 0.000000
GrpLevelPara = 0.173913 

BW Util details:
bwutil = 0.001132 
total_CMD = 28276 
util_bw = 32 
Wasted_Col = 40 
Wasted_Row = 0 
Idle = 28204 

BW Util Bottlenecks: 
RCDc_limit = 40 
RCDWRc_limit = 0 
WTRc_limit = 0 
RTWc_limit = 0 
CCDLc_limit = 0 
rwq = 0 
CCDLc_limit_alone = 0 
WTRc_limit_alone = 0 
RTWc_limit_alone = 0 

Commands details: 
total_CMD = 28276 
n_nop = 28266 
Read = 8 
Write = 0 
L2_Alloc = 0 
L2_WB = 0 
n_act = 2 
n_pre = 0 
n_ref = 4565638765957434729 
n_req = 8 
total_req = 8 

Dual Bus Interface Util: 
issued_total_row = 2 
issued_total_col = 8 
Row_Bus_Util =  0.000071 
CoL_Bus_Util = 0.000283 
Either_Row_CoL_Bus_Util = 0.000354 
Issued_on_Two_Bus_Simul_Util = 0.000000 
issued_two_Eff = 0.000000 
queue_avg = 0.004668 


dram_util_bins: 0 0 0 0 0 0 0 0 0 0
dram_eff_bins: 0 0 0 0 0 0 0 0 0 0
mrqq: max=3 avg=0.00466827
Memory Partition 2: 
Cache L2_bank_004:
MSHR contents

Cache L2_bank_005:
MSHR contents

In Dram Latency Queue (total = 0): 
DRAM[2]: 16 bks, busW=2 BL=16 CL=20, tRRD=10 tCCD=4, tRCD=20 tRAS=50 tRP=20 tRC=62
n_cmd=28276 n_nop=28266 n_act=2 n_pre=0 n_ref_event=0 n_req=8 n_rd=8 n_rd_L2_A=0 n_write=0 n_wr_bk=0 bw_util=0.001132
n_activity=124 dram_eff=0.2581
bk0: 4a 28248i bk1: 4a 28247i bk2: 0a 28275i bk3: 0a 28275i bk4: 0a 28275i bk5: 0a 28276i bk6: 0a 28276i bk7: 0a 28276i bk8: 0a 28276i bk9: 0a 28276i bk10: 0a 28276i bk11: 0a 28276i bk12: 0a 28276i bk13: 0a 28276i bk14: 0a 28276i bk15: 0a 28277i 

------------------------------------------------------------------------

Row_Buffer_Locality = 0.750000
Row_Buffer_Locality_read = 0.750000
Row_Buffer_Locality_write = -nan
Bank_Level_Parallism = 1.000000
Bank_Level_Parallism_Col = 1.000000
Bank_Level_Parallism_Ready = 1.000000
write_to_read_ratio_blp_rw_average = 0.000000
GrpLevelPara = 1.000000 

BW Util details:
bwutil = 0.001132 
total_CMD = 28276 
util_bw = 32 
Wasted_Col = 40 
Wasted_Row = 0 
Idle = 28204 

BW Util Bottlenecks: 
RCDc_limit = 40 
RCDWRc_limit = 0 
WTRc_limit = 0 
RTWc_limit = 0 
CCDLc_limit = 0 
rwq = 0 
CCDLc_limit_alone = 0 
WTRc_limit_alone = 0 
RTWc_limit_alone = 0 

Commands details: 
total_CMD = 28276 
n_nop = 28266 
Read = 8 
Write = 0 
L2_Alloc = 0 
L2_WB = 0 
n_act = 2 
n_pre = 0 
n_ref = 0 
n_req = 8 
total_req = 8 

Dual Bus Interface Util: 
issued_total_row = 2 
issued_total_col = 8 
Row_Bus_Util =  0.000071 
CoL_Bus_Util = 0.000283 
Either_Row_CoL_Bus_Util = 0.000354 
Issued_on_Two_Bus_Simul_Util = 0.000000 
issued_two_Eff = 0.000000 
queue_avg = 0.004527 


dram_util_bins: 0 0 0 0 0 0 0 0 0 0
dram_eff_bins: 0 0 0 0 0 0 0 0 0 0
mrqq: max=3 avg=0.00452681
Memory Partition 3: 
Cache L2_bank_006:
MSHR contents

Cache L2_bank_007:
MSHR contents

In Dram Latency Queue (total = 0): 
DRAM[3]: 16 bks, busW=2 BL=16 CL=20, tRRD=10 tCCD=4, tRCD=20 tRAS=50 tRP=20 tRC=62
n_cmd=28276 n_nop=28266 n_act=2 n_pre=0 n_ref_event=0 n_req=8 n_rd=8 n_rd_L2_A=0 n_write=0 n_wr_bk=0 bw_util=0.001132
n_activity=124 dram_eff=0.2581
bk0: 4a 28248i bk1: 4a 28247i bk2: 0a 28275i bk3: 0a 28275i bk4: 0a 28275i bk5: 0a 28276i bk6: 0a 28276i bk7: 0a 28276i bk8: 0a 28276i bk9: 0a 28276i bk10: 0a 28276i bk11: 0a 28276i bk12: 0a 28276i bk13: 0a 28276i bk14: 0a 28276i bk15: 0a 28277i 

------------------------------------------------------------------------

Row_Buffer_Locality = 0.750000
Row_Buffer_Locality_read = 0.750000
Row_Buffer_Locality_write = -nan
Bank_Level_Parallism = 1.000000
Bank_Level_Parallism_Col = 1.000000
Bank_Level_Parallism_Ready = 1.000000
write_to_read_ratio_blp_rw_average = 0.000000
GrpLevelPara = 1.000000 

BW Util details:
bwutil = 0.001132 
total_CMD = 28276 
util_bw = 32 
Wasted_Col = 40 
Wasted_Row = 0 
Idle = 28204 

BW Util Bottlenecks: 
RCDc_limit = 40 
RCDWRc_limit = 0 
WTRc_limit = 0 
RTWc_limit = 0 
CCDLc_limit = 0 
rwq = 0 
CCDLc_limit_alone = 0 
WTRc_limit_alone = 0 
RTWc_limit_alone = 0 

Commands details: 
total_CMD = 28276 
n_nop = 28266 
Read = 8 
Write = 0 
L2_Alloc = 0 
L2_WB = 0 
n_act = 2 
n_pre = 0 
n_ref = 0 
n_req = 8 
total_req = 8 

Dual Bus Interface Util: 
issued_total_row = 2 
issued_total_col = 8 
Row_Bus_Util =  0.000071 
CoL_Bus_Util = 0.000283 
Either_Row_CoL_Bus_Util = 0.000354 
Issued_on_Two_Bus_Simul_Util = 0.000000 
issued_two_Eff = 0.000000 
queue_avg = 0.004562 


dram_util_bins: 0 0 0 0 0 0 0 0 0 0
dram_eff_bins: 0 0 0 0 0 0 0 0 0 0
mrqq: max=3 avg=0.00456217
Memory Partition 4: 
Cache L2_bank_008:
MSHR contents

Cache L2_bank_009:
MSHR contents

In Dram Latency Queue (total = 0): 
DRAM[4]: 16 bks, busW=2 BL=16 CL=20, tRRD=10 tCCD=4, tRCD=20 tRAS=50 tRP=20 tRC=62
n_cmd=28276 n_nop=28266 n_act=2 n_pre=0 n_ref_event=0 n_req=8 n_rd=8 n_rd_L2_A=0 n_write=0 n_wr_bk=0 bw_util=0.001132
n_activity=124 dram_eff=0.2581
bk0: 4a 28248i bk1: 4a 28247i bk2: 0a 28275i bk3: 0a 28275i bk4: 0a 28275i bk5: 0a 28276i bk6: 0a 28276i bk7: 0a 28276i bk8: 0a 28276i bk9: 0a 28276i bk10: 0a 28276i bk11: 0a 28276i bk12: 0a 28276i bk13: 0a 28276i bk14: 0a 28276i bk15: 0a 28277i 

------------------------------------------------------------------------

Row_Buffer_Locality = 0.750000
Row_Buffer_Locality_read = 0.750000
Row_Buffer_Locality_write = -nan
Bank_Level_Parallism = 1.000000
Bank_Level_Parallism_Col = 1.000000
Bank_Level_Parallism_Ready = 1.000000
write_to_read_ratio_blp_rw_average = 0.000000
GrpLevelPara = 1.000000 

BW Util details:
bwutil = 0.001132 
total_CMD = 28276 
util_bw = 32 
Wasted_Col = 40 
Wasted_Row = 0 
Idle = 28204 

BW Util Bottlenecks: 
RCDc_limit = 40 
RCDWRc_limit = 0 
WTRc_limit = 0 
RTWc_limit = 0 
CCDLc_limit = 0 
rwq = 0 
CCDLc_limit_alone = 0 
WTRc_limit_alone = 0 
RTWc_limit_alone = 0 

Commands details: 
total_CMD = 28276 
n_nop = 28266 
Read = 8 
Write = 0 
L2_Alloc = 0 
L2_WB = 0 
n_act = 2 
n_pre = 0 
n_ref = 0 
n_req = 8 
total_req = 8 

Dual Bus Interface Util: 
issued_total_row = 2 
issued_total_col = 8 
Row_Bus_Util =  0.000071 
CoL_Bus_Util = 0.000283 
Either_Row_CoL_Bus_Util = 0.000354 
Issued_on_Two_Bus_Simul_Util = 0.000000 
issued_two_Eff = 0.000000 
queue_avg = 0.004491 


dram_util_bins: 0 0 0 0 0 0 0 0 0 0
dram_eff_bins: 0 0 0 0 0 0 0 0 0 0
mrqq: max=3 avg=0.00449144
Memory Partition 5: 
Cache L2_bank_010:
MSHR contents

Cache L2_bank_011:
MSHR contents

In Dram Latency Queue (total = 0): 
DRAM[5]: 16 bks, busW=2 BL=16 CL=20, tRRD=10 tCCD=4, tRCD=20 tRAS=50 tRP=20 tRC=62
n_cmd=28276 n_nop=28266 n_act=2 n_pre=0 n_ref_event=0 n_req=8 n_rd=8 n_rd_L2_A=0 n_write=0 n_wr_bk=0 bw_util=0.001132
n_activity=124 dram_eff=0.2581
bk0: 4a 28248i bk1: 4a 28247i bk2: 0a 28275i bk3: 0a 28275i bk4: 0a 28275i bk5: 0a 28276i bk6: 0a 28276i bk7: 0a 28276i bk8: 0a 28276i bk9: 0a 28276i bk10: 0a 28276i bk11: 0a 28276i bk12: 0a 28276i bk13: 0a 28276i bk14: 0a 28276i bk15: 0a 28277i 

------------------------------------------------------------------------

Row_Buffer_Locality = 0.750000
Row_Buffer_Locality_read = 0.750000
Row_Buffer_Locality_write = -nan
Bank_Level_Parallism = 1.000000
Bank_Level_Parallism_Col = 1.000000
Bank_Level_Parallism_Ready = 1.000000
write_to_read_ratio_blp_rw_average = 0.000000
GrpLevelPara = 1.000000 

BW Util details:
bwutil = 0.001132 
total_CMD = 28276 
util_bw = 32 
Wasted_Col = 40 
Wasted_Row = 0 
Idle = 28204 

BW Util Bottlenecks: 
RCDc_limit = 40 
RCDWRc_limit = 0 
WTRc_limit = 0 
RTWc_limit = 0 
CCDLc_limit = 0 
rwq = 0 
CCDLc_limit_alone = 0 
WTRc_limit_alone = 0 
RTWc_limit_alone = 0 

Commands details: 
total_CMD = 28276 
n_nop = 28266 
Read = 8 
Write = 0 
L2_Alloc = 0 
L2_WB = 0 
n_act = 2 
n_pre = 0 
n_ref = 0 
n_req = 8 
total_req = 8 

Dual Bus Interface Util: 
issued_total_row = 2 
issued_total_col = 8 
Row_Bus_Util =  0.000071 
CoL_Bus_Util = 0.000283 
Either_Row_CoL_Bus_Util = 0.000354 
Issued_on_Two_Bus_Simul_Util = 0.000000 
issued_two_Eff = 0.000000 
queue_avg = 0.004491 


dram_util_bins: 0 0 0 0 0 0 0 0 0 0
dram_eff_bins: 0 0 0 0 0 0 0 0 0 0
mrqq: max=3 avg=0.00449144
Memory Partition 6: 
Cache L2_bank_012:
MSHR contents

Cache L2_bank_013:
MSHR contents

In Dram Latency Queue (total = 0): 
DRAM[6]: 16 bks, busW=2 BL=16 CL=20, tRRD=10 tCCD=4, tRCD=20 tRAS=50 tRP=20 tRC=62
n_cmd=28276 n_nop=28266 n_act=2 n_pre=0 n_ref_event=0 n_req=8 n_rd=8 n_rd_L2_A=0 n_write=0 n_wr_bk=0 bw_util=0.001132
n_activity=124 dram_eff=0.2581
bk0: 4a 28248i bk1: 4a 28247i bk2: 0a 28275i bk3: 0a 28275i bk4: 0a 28275i bk5: 0a 28276i bk6: 0a 28276i bk7: 0a 28276i bk8: 0a 28276i bk9: 0a 28276i bk10: 0a 28276i bk11: 0a 28276i bk12: 0a 28276i bk13: 0a 28276i bk14: 0a 28276i bk15: 0a 28277i 

------------------------------------------------------------------------

Row_Buffer_Locality = 0.750000
Row_Buffer_Locality_read = 0.750000
Row_Buffer_Locality_write = -nan
Bank_Level_Parallism = 1.000000
Bank_Level_Parallism_Col = 1.000000
Bank_Level_Parallism_Ready = 1.000000
write_to_read_ratio_blp_rw_average = 0.000000
GrpLevelPara = 1.000000 

BW Util details:
bwutil = 0.001132 
total_CMD = 28276 
util_bw = 32 
Wasted_Col = 40 
Wasted_Row = 0 
Idle = 28204 

BW Util Bottlenecks: 
RCDc_limit = 40 
RCDWRc_limit = 0 
[...]

Row_Buffer_Locality = -nan
Row_Buffer_Locality_read = -nan
Row_Buffer_Locality_write = -nan
Bank_Level_Parallism = -nan
Bank_Level_Parallism_Col = -nan
Bank_Level_Parallism_Ready = -nan
write_to_read_ratio_blp_rw_average = -nan
GrpLevelPara = -nan 

BW Util details:
bwutil = 0.000000 
total_CMD = 119052 
util_bw = 0 
Wasted_Col = 0 
Wasted_Row = 0 
Idle = 119052 

BW Util Bottlenecks: 
RCDc_limit = 0 
RCDWRc_limit = 0 
WTRc_limit = 0 
RTWc_limit = 0 
CCDLc_limit = 0 
rwq = 0 
CCDLc_limit_alone = 0 
WTRc_limit_alone = 0 
RTWc_limit_alone = 0 

Commands details: 
total_CMD = 119052 
n_nop = 119052 
Read = 0 
Write = 0 
L2_Alloc = 0 
L2_WB = 0 
n_act = 0 
n_pre = 0 
n_ref = 0 
n_req = 0 
total_req = 0 

Dual Bus Interface Util: 
issued_total_row = 0 
issued_total_col = 0 
Row_Bus_Util =  0.000000 
CoL_Bus_Util = 0.000000 
Either_Row_CoL_Bus_Util = 0.000000 
Issued_on_Two_Bus_Simul_Util = 0.000000 
issued_two_Eff = -nan 
queue_avg = 0.000000 


dram_util_bins: 0 0 0 0 0 0 0 0 0 0
dram_eff_bins: 0 0 0 0 0 0 0 0 0 0
mrqq: max=0 avg=0
Memory Partition 13: 
Cache L2_bank_026:
MSHR contents

Cache L2_bank_027:
MSHR contents

In Dram Latency Queue (total = 0): 
DRAM[13]: 16 bks, busW=2 BL=16 CL=20, tRRD=10 tCCD=4, tRCD=20 tRAS=50 tRP=20 tRC=62
n_cmd=119052 n_nop=119052 n_act=0 n_pre=0 n_ref_event=0 n_req=0 n_rd=0 n_rd_L2_A=0 n_write=0 n_wr_bk=0 bw_util=0
n_activity=0 dram_eff=-nan
bk0: 0a 119052i bk1: 0a 119052i bk2: 0a 119052i bk3: 0a 119052i bk4: 0a 119052i bk5: 0a 119052i bk6: 0a 119052i bk7: 0a 119052i bk8: 0a 119052i bk9: 0a 119052i bk10: 0a 119052i bk11: 0a 119052i bk12: 0a 119052i bk13: 0a 119052i bk14: 0a 119052i bk15: 0a 119052i 

------------------------------------------------------------------------

Row_Buffer_Locality = -nan
Row_Buffer_Locality_read = -nan
Row_Buffer_Locality_write = -nan
Bank_Level_Parallism = -nan
Bank_Level_Parallism_Col = -nan
Bank_Level_Parallism_Ready = -nan
write_to_read_ratio_blp_rw_average = -nan
GrpLevelPara = -nan 

BW Util details:
bwutil = 0.000000 
total_CMD = 119052 
util_bw = 0 
Wasted_Col = 0 
Wasted_Row = 0 
Idle = 119052 

BW Util Bottlenecks: 
RCDc_limit = 0 
RCDWRc_limit = 0 
WTRc_limit = 0 
RTWc_limit = 0 
CCDLc_limit = 0 
rwq = 0 
CCDLc_limit_alone = 0 
WTRc_limit_alone = 0 
RTWc_limit_alone = 0 

Commands details: 
total_CMD = 119052 
n_nop = 119052 
Read = 0 
Write = 0 
L2_Alloc = 0 
L2_WB = 0 
n_act = 0 
n_pre = 0 
n_ref = 0 
n_req = 0 
total_req = 0 

Dual Bus Interface Util: 
issued_total_row = 0 
issued_total_col = 0 
Row_Bus_Util =  0.000000 
CoL_Bus_Util = 0.000000 
Either_Row_CoL_Bus_Util = 0.000000 
Issued_on_Two_Bus_Simul_Util = 0.000000 
issued_two_Eff = -nan 
queue_avg = 0.000000 


dram_util_bins: 0 0 0 0 0 0 0 0 0 0
dram_eff_bins: 0 0 0 0 0 0 0 0 0 0
mrqq: max=0 avg=0
Memory Partition 14: 
Cache L2_bank_028:
MSHR contents

Cache L2_bank_029:
MSHR contents

In Dram Latency Queue (total = 0): 
DRAM[14]: 16 bks, busW=2 BL=16 CL=20, tRRD=10 tCCD=4, tRCD=20 tRAS=50 tRP=20 tRC=62
n_cmd=119052 n_nop=119047 n_act=1 n_pre=0 n_ref_event=0 n_req=4 n_rd=4 n_rd_L2_A=0 n_write=0 n_wr_bk=0 bw_util=0.0001344
n_activity=62 dram_eff=0.2581
bk0: 0a 119052i bk1: 4a 119023i bk2: 0a 119051i bk3: 0a 119052i bk4: 0a 119052i bk5: 0a 119052i bk6: 0a 119052i bk7: 0a 119052i bk8: 0a 119052i bk9: 0a 119052i bk10: 0a 119052i bk11: 0a 119052i bk12: 0a 119052i bk13: 0a 119052i bk14: 0a 119052i bk15: 0a 119052i 

------------------------------------------------------------------------

Row_Buffer_Locality = 0.750000
Row_Buffer_Locality_read = 0.750000
Row_Buffer_Locality_write = -nan
Bank_Level_Parallism = 1.000000
Bank_Level_Parallism_Col = 1.000000
Bank_Level_Parallism_Ready = 1.000000
write_to_read_ratio_blp_rw_average = 0.000000
GrpLevelPara = 1.000000 

BW Util details:
bwutil = 0.000134 
total_CMD = 119052 
util_bw = 16 
Wasted_Col = 20 
Wasted_Row = 0 
Idle = 119016 

BW Util Bottlenecks: 
RCDc_limit = 20 
RCDWRc_limit = 0 
WTRc_limit = 0 
RTWc_limit = 0 
CCDLc_limit = 0 
rwq = 0 
CCDLc_limit_alone = 0 
WTRc_limit_alone = 0 
RTWc_limit_alone = 0 

Commands details: 
total_CMD = 119052 
n_nop = 119047 
Read = 4 
Write = 0 
L2_Alloc = 0 
L2_WB = 0 
n_act = 1 
n_pre = 0 
n_ref = 0 
n_req = 4 
total_req = 4 

Dual Bus Interface Util: 
issued_total_row = 1 
issued_total_col = 4 
Row_Bus_Util =  0.000008 
CoL_Bus_Util = 0.000034 
Either_Row_CoL_Bus_Util = 0.000042 
Issued_on_Two_Bus_Simul_Util = 0.000000 
issued_two_Eff = 0.000000 
queue_avg = 0.000529 


dram_util_bins: 0 0 0 0 0 0 0 0 0 0
dram_eff_bins: 0 0 0 0 0 0 0 0 0 0
mrqq: max=3 avg=0.000529181
Memory Partition 15: 
Cache L2_bank_030:
MSHR contents

Cache L2_bank_031:
MSHR contents

In Dram Latency Queue (total = 0): 
DRAM[15]: 16 bks, busW=2 BL=16 CL=20, tRRD=10 tCCD=4, tRCD=20 tRAS=50 tRP=20 tRC=62
n_cmd=119052 n_nop=119037 n_act=4 n_pre=1 n_ref_event=0 n_req=10 n_rd=10 n_rd_L2_A=0 n_write=0 n_wr_bk=0 bw_util=0.000336
n_activity=268 dram_eff=0.1493
bk0: 5a 118983i bk1: 4a 119022i bk2: 0a 119050i bk3: 0a 119050i bk4: 0a 119050i bk5: 0a 119051i bk6: 0a 119052i bk7: 0a 119052i bk8: 0a 119052i bk9: 0a 119052i bk10: 0a 119052i bk11: 0a 119052i bk12: 0a 119053i bk13: 0a 119053i bk14: 0a 119053i bk15: 1a 119034i 

------------------------------------------------------------------------

Row_Buffer_Locality = 0.600000
Row_Buffer_Locality_read = 0.600000
Row_Buffer_Locality_write = -nan
Bank_Level_Parallism = 1.000000
Bank_Level_Parallism_Col = 1.000000
Bank_Level_Parallism_Ready = 1.000000
write_to_read_ratio_blp_rw_average = 0.000000
GrpLevelPara = 1.000000 

BW Util details:
bwutil = 0.000336 
total_CMD = 119052 
util_bw = 40 
Wasted_Col = 80 
Wasted_Row = 20 
Idle = 118912 

BW Util Bottlenecks: 
RCDc_limit = 80 
RCDWRc_limit = 0 
WTRc_limit = 0 
RTWc_limit = 0 
CCDLc_limit = 0 
rwq = 0 
CCDLc_limit_alone = 0 
WTRc_limit_alone = 0 
RTWc_limit_alone = 0 

Commands details: 
total_CMD = 119052 
n_nop = 119037 
Read = 10 
Write = 0 
L2_Alloc = 0 
L2_WB = 0 
n_act = 4 
n_pre = 1 
n_ref = 0 
n_req = 10 
total_req = 10 

Dual Bus Interface Util: 
issued_total_row = 5 
issued_total_col = 10 
Row_Bus_Util =  0.000042 
CoL_Bus_Util = 0.000084 
Either_Row_CoL_Bus_Util = 0.000126 
Issued_on_Two_Bus_Simul_Util = 0.000000 
issued_two_Eff = 0.000000 
queue_avg = 0.001084 


dram_util_bins: 0 0 0 0 0 0 0 0 0 0
dram_eff_bins: 0 0 0 0 0 0 0 0 0 0
mrqq: max=3 avg=0.00108356

========= L2 cache stats =========
L2_cache_bank[0]: Access = 1009, Miss = 9, Miss_rate = 0.009, Pending_hits = 16, Reservation_fails = 217
L2_cache_bank[1]: Access = 871, Miss = 7, Miss_rate = 0.008, Pending_hits = 15, Reservation_fails = 107
L2_cache_bank[2]: Access = 1242, Miss = 7, Miss_rate = 0.006, Pending_hits = 16, Reservation_fails = 120
L2_cache_bank[3]: Access = 1090, Miss = 7, Miss_rate = 0.006, Pending_hits = 16, Reservation_fails = 109
L2_cache_bank[4]: Access = 1214, Miss = 7, Miss_rate = 0.006, Pending_hits = 16, Reservation_fails = 107
L2_cache_bank[5]: Access = 1188, Miss = 7, Miss_rate = 0.006, Pending_hits = 16, Reservation_fails = 127
L2_cache_bank[6]: Access = 1477, Miss = 7, Miss_rate = 0.005, Pending_hits = 16, Reservation_fails = 122
L2_cache_bank[7]: Access = 1346, Miss = 7, Miss_rate = 0.005, Pending_hits = 16, Reservation_fails = 96
L2_cache_bank[8]: Access = 1188, Miss = 4, Miss_rate = 0.003, Pending_hits = 12, Reservation_fails = 111
L2_cache_bank[9]: Access = 1182, Miss = 4, Miss_rate = 0.003, Pending_hits = 12, Reservation_fails = 112
L2_cache_bank[10]: Access = 1214, Miss = 4, Miss_rate = 0.003, Pending_hits = 12, Reservation_fails = 108
L2_cache_bank[11]: Access = 1199, Miss = 4, Miss_rate = 0.003, Pending_hits = 12, Reservation_fails = 94
L2_cache_bank[12]: Access = 1120, Miss = 4, Miss_rate = 0.004, Pending_hits = 12, Reservation_fails = 112
L2_cache_bank[13]: Access = 1228, Miss = 4, Miss_rate = 0.003, Pending_hits = 12, Reservation_fails = 108
L2_cache_bank[14]: Access = 1143, Miss = 4, Miss_rate = 0.003, Pending_hits = 12, Reservation_fails = 111
L2_cache_bank[15]: Access = 1276, Miss = 4, Miss_rate = 0.003, Pending_hits = 12, Reservation_fails = 108
L2_cache_bank[16]: Access = 1042, Miss = 4, Miss_rate = 0.004, Pending_hits = 12, Reservation_fails = 106
L2_cache_bank[17]: Access = 1280, Miss = 4, Miss_rate = 0.003, Pending_hits = 12, Reservation_fails = 112
L2_cache_bank[18]: Access = 1085, Miss = 4, Miss_rate = 0.004, Pending_hits = 12, Reservation_fails = 107
L2_cache_bank[19]: Access = 1282, Miss = 4, Miss_rate = 0.003, Pending_hits = 12, Reservation_fails = 108
L2_cache_bank[20]: Access = 1088, Miss = 4, Miss_rate = 0.004, Pending_hits = 12, Reservation_fails = 106
L2_cache_bank[21]: Access = 1257, Miss = 4, Miss_rate = 0.003, Pending_hits = 12, Reservation_fails = 111
L2_cache_bank[22]: Access = 1156, Miss = 4, Miss_rate = 0.003, Pending_hits = 12, Reservation_fails = 74
L2_cache_bank[23]: Access = 1052, Miss = 0, Miss_rate = 0.000, Pending_hits = 0, Reservation_fails = 0
L2_cache_bank[24]: Access = 872, Miss = 0, Miss_rate = 0.000, Pending_hits = 0, Reservation_fails = 0
L2_cache_bank[25]: Access = 838, Miss = 0, Miss_rate = 0.000, Pending_hits = 0, Reservation_fails = 0
L2_cache_bank[26]: Access = 823, Miss = 0, Miss_rate = 0.000, Pending_hits = 0, Reservation_fails = 0
L2_cache_bank[27]: Access = 748, Miss = 0, Miss_rate = 0.000, Pending_hits = 0, Reservation_fails = 0
L2_cache_bank[28]: Access = 49, Miss = 0, Miss_rate = 0.000, Pending_hits = 0, Reservation_fails = 0
L2_cache_bank[29]: Access = 136, Miss = 4, Miss_rate = 0.029, Pending_hits = 12, Reservation_fails = 108
L2_cache_bank[30]: Access = 137, Miss = 5, Miss_rate = 0.036, Pending_hits = 12, Reservation_fails = 109
L2_cache_bank[31]: Access = 161, Miss = 5, Miss_rate = 0.031, Pending_hits = 15, Reservation_fails = 107
L2_total_cache_accesses = 31993
L2_total_cache_misses = 132
L2_total_cache_miss_rate = 0.0041
L2_total_cache_pending_hits = 346
L2_total_cache_reservation_fails = 2917
L2_total_cache_breakdown:
	L2_cache_stats_breakdown[GLOBAL_ACC_R][HIT] = 26433
	L2_cache_stats_breakdown[GLOBAL_ACC_R][HIT_RESERVED] = 34
	L2_cache_stats_breakdown[GLOBAL_ACC_R][MISS] = 12
	L2_cache_stats_breakdown[GLOBAL_ACC_R][RESERVATION_FAIL] = 165
	L2_cache_stats_breakdown[GLOBAL_ACC_R][SECTOR_MISS] = 16
	L2_cache_stats_breakdown[GLOBAL_ACC_R][MSHR_HIT] = 34
	L2_cache_stats_breakdown[LOCAL_ACC_R][HIT] = 0
	L2_cache_stats_breakdown[LOCAL_ACC_R][HIT_RESERVED] = 0
	L2_cache_stats_breakdown[LOCAL_ACC_R][MISS] = 0
	L2_cache_stats_breakdown[LOCAL_ACC_R][RESERVATION_FAIL] = 0
	L2_cache_stats_breakdown[LOCAL_ACC_R][SECTOR_MISS] = 0
	L2_cache_stats_breakdown[LOCAL_ACC_R][MSHR_HIT] = 0
	L2_cache_stats_breakdown[CONST_ACC_R][HIT] = 0
	L2_cache_stats_breakdown[CONST_ACC_R][HIT_RESERVED] = 0
	L2_cache_stats_breakdown[CONST_ACC_R][MISS] = 0
	L2_cache_stats_breakdown[CONST_ACC_R][RESERVATION_FAIL] = 0
	L2_cache_stats_breakdown[CONST_ACC_R][SECTOR_MISS] = 0
	L2_cache_stats_breakdown[CONST_ACC_R][MSHR_HIT] = 0
	L2_cache_stats_breakdown[TEXTURE_ACC_R][HIT] = 0
	L2_cache_stats_breakdown[TEXTURE_ACC_R][HIT_RESERVED] = 0
	L2_cache_stats_breakdown[TEXTURE_ACC_R][MISS] = 0
	L2_cache_stats_breakdown[TEXTURE_ACC_R][RESERVATION_FAIL] = 0
	L2_cache_stats_breakdown[TEXTURE_ACC_R][SECTOR_MISS] = 0
	L2_cache_stats_breakdown[TEXTURE_ACC_R][MSHR_HIT] = 0
	L2_cache_stats_breakdown[GLOBAL_ACC_W][HIT] = 1962
	L2_cache_stats_breakdown[GLOBAL_ACC_W][HIT_RESERVED] = 0
	L2_cache_stats_breakdown[GLOBAL_ACC_W][MISS] = 0
	L2_cache_stats_breakdown[GLOBAL_ACC_W][RESERVATION_FAIL] = 0
	L2_cache_stats_breakdown[GLOBAL_ACC_W][SECTOR_MISS] = 0
	L2_cache_stats_breakdown[GLOBAL_ACC_W][MSHR_HIT] = 0
	L2_cache_stats_breakdown[LOCAL_ACC_W][HIT] = 0
	L2_cache_stats_breakdown[LOCAL_ACC_W][HIT_RESERVED] = 0
	L2_cache_stats_breakdown[LOCAL_ACC_W][MISS] = 0
	L2_cache_stats_breakdown[LOCAL_ACC_W][RESERVATION_FAIL] = 0
	L2_cache_stats_breakdown[LOCAL_ACC_W][SECTOR_MISS] = 0
	L2_cache_stats_breakdown[LOCAL_ACC_W][MSHR_HIT] = 0
	L2_cache_stats_breakdown[L1_WRBK_ACC][HIT] = 0
	L2_cache_stats_breakdown[L1_WRBK_ACC][HIT_RESERVED] = 0
	L2_cache_stats_breakdown[L1_WRBK_ACC][MISS] = 0
	L2_cache_stats_breakdown[L1_WRBK_ACC][RESERVATION_FAIL] = 0
	L2_cache_stats_breakdown[L1_WRBK_ACC][SECTOR_MISS] = 0
	L2_cache_stats_breakdown[L1_WRBK_ACC][MSHR_HIT] = 0
	L2_cache_stats_breakdown[L2_WRBK_ACC][HIT] = 0
	L2_cache_stats_breakdown[L2_WRBK_ACC][HIT_RESERVED] = 0
	L2_cache_stats_breakdown[L2_WRBK_ACC][MISS] = 0
	L2_cache_stats_breakdown[L2_WRBK_ACC][RESERVATION_FAIL] = 0
	L2_cache_stats_breakdown[L2_WRBK_ACC][SECTOR_MISS] = 0
	L2_cache_stats_breakdown[L2_WRBK_ACC][MSHR_HIT] = 0
	L2_cache_stats_breakdown[INST_ACC_R][HIT] = 3120
	L2_cache_stats_breakdown[INST_ACC_R][HIT_RESERVED] = 312
	L2_cache_stats_breakdown[INST_ACC_R][MISS] = 26
	L2_cache_stats_breakdown[INST_ACC_R][RESERVATION_FAIL] = 2752
	L2_cache_stats_breakdown[INST_ACC_R][SECTOR_MISS] = 78
	L2_cache_stats_breakdown[INST_ACC_R][MSHR_HIT] = 312
	L2_cache_stats_breakdown[L1_WR_ALLOC_R][HIT] = 0
	L2_cache_stats_breakdown[L1_WR_ALLOC_R][HIT_RESERVED] = 0
	L2_cache_stats_breakdown[L1_WR_ALLOC_R][MISS] = 0
	L2_cache_stats_breakdown[L1_WR_ALLOC_R][RESERVATION_FAIL] = 0
	L2_cache_stats_breakdown[L1_WR_ALLOC_R][SECTOR_MISS] = 0
	L2_cache_stats_breakdown[L1_WR_ALLOC_R][MSHR_HIT] = 0
	L2_cache_stats_breakdown[L2_WR_ALLOC_R][HIT] = 0
	L2_cache_stats_breakdown[L2_WR_ALLOC_R][HIT_RESERVED] = 0
	L2_cache_stats_breakdown[L2_WR_ALLOC_R][MISS] = 0
	L2_cache_stats_breakdown[L2_WR_ALLOC_R][RESERVATION_FAIL] = 0
	L2_cache_stats_breakdown[L2_WR_ALLOC_R][SECTOR_MISS] = 0
	L2_cache_stats_breakdown[L2_WR_ALLOC_R][MSHR_HIT] = 0
	L2_cache_stats_breakdown[GLOBAL_ACC_R][TOTAL_ACCESS] = 26529
	L2_cache_stats_breakdown[GLOBAL_ACC_W][TOTAL_ACCESS] = 1962
	L2_cache_stats_breakdown[INST_ACC_R][TOTAL_ACCESS] = 3848
L2_total_cache_reservation_fail_breakdown:
	L2_cache_stats_fail_breakdown[GLOBAL_ACC_R][MSHR_MERGE_ENRTY_FAIL] = 165
	L2_cache_stats_fail_breakdown[INST_ACC_R][MSHR_MERGE_ENRTY_FAIL] = 2752
L2_cache_data_port_util = 0.015
L2_cache_fill_port_util = 0.000

icnt_total_pkts_mem_to_simt=31993
icnt_total_pkts_simt_to_mem=29341
LD_mem_lat_dist  0 0 0 0 0 0 0 0 0 0 0 0 0 0 0 0 0 0 0 0 0 0 0 0 0 0 0
ST_mem_lat_dist  0 0 0 0 0 0 0 0 0 0 0 0 0 0 0 0 0 0 0 0 0 0 0 0 0 0 0
----------------------------Interconnect-DETAILS--------------------------------
Req_Network_injected_packets_num = 29341
Req_Network_cycles = 64799
Req_Network_injected_packets_per_cycle =       0.4528 
Req_Network_conflicts_per_cycle =       0.2947
Req_Network_conflicts_per_cycle_util =       4.4614
Req_Bank_Level_Parallism =       6.8554
Req_Network_in_buffer_full_per_cycle =       0.0000
Req_Network_in_buffer_avg_util =       0.5975
Req_Network_out_buffer_full_per_cycle =       0.0000
Req_Network_out_buffer_avg_util =       0.0142

Reply_Network_injected_packets_num = 31993
Reply_Network_cycles = 64799
Reply_Network_injected_packets_per_cycle =        0.4937
Reply_Network_conflicts_per_cycle =        0.3025
Reply_Network_conflicts_per_cycle_util =       2.8288
Reply_Bank_Level_Parallism =       4.6173
Reply_Network_in_buffer_full_per_cycle =       0.0000
Reply_Network_in_buffer_avg_util =       0.0543
Reply_Network_out_buffer_full_per_cycle =       0.0000
Reply_Network_out_buffer_avg_util =       0.0145
----------------------------END-of-Interconnect-DETAILS-------------------------


gpgpu_simulation_time = 0 days, 0 hrs, 1 min, 4 sec (64 sec)
gpgpu_simulation_rate = 509990 (inst/sec)
gpgpu_simulation_rate = 1012 (cycle/sec)
gpgpu_silicon_slowdown = 1882411x
TOTAL CYCLES TAKEN 64799
tot_inst_exec 1249006
ICNT_TO_MEM_count 0 ICNT_TO_MEM_cycles 0
ROP_DELAY_count 0 ROP_DELAY_cycle 0
ICNT_TO_L2_QUEUE_count 0 ICNT_TO_L2_QUEUE_cycles 0
L2_TO_DRAM_QUEUE_count 0 L2_TO_DRAM_QUEUE_cycle 0
DRAM_LATENCY_QUEUE_count 0 DRAM_LATENCY_QUEUE_cycle 0
DRAM_TO_L2_QUEUE_count 0 DRAM_TO_L2_QUEUE_cycle 0
DRAM_L2_FILL_QUEUE_count 0 DRAM_L2_FILL_QUEUE_cycle 0
L2_TO_ICNT_count 0 L2_TO_ICNT_cycle 0
CLUSTER_TO_SHADER_QUEUE_count 28457 CLUSTER_TO_SHADER_QUEUE_cycle 0
ICNT_TO_SHADER_count 28457 ICNT_TO_SHADER_cycles 139652
CLUSTER_TO_SHADER_QUEUE_1_count 31993 CLUSTER_TO_SHADER_QUEUE_1_cycle 1640280
issued_inst_count 1249006
SHADER_ICNT_PUSH 28457
mem_inst_issue 123559
comp_inst_issue 1125447
mem_data_stall 1095825
comp_data_stall 1317804
ibuffer_stall 1110208
comp_str_stall 0
mem_str_stall 10120
other_stall1 0
other_stall2 0
other_stall3 0
tot_cycles_exec_all_SM 3828556
mem_data_stall_issue_irr 3371712
comp_data_stall_issue_irr 5192402
ibuffer_stall_issue_irr 3838788
comp_str_stall_issue_irr 1068591
mem_str_stall_issue_irr 17736
other_stall_issue_irr1 0
other_stall_issue_irr2 0
other_stall_issue_irr3 0
shared_cycle_count 660765
constant_cycle_count 0
texture_cycle_count 0
memory_cycle_count 19002
shared_cycle_cycle 1765422
constant_cycle_cycle 0
texture_cycle_cycle 0
memory_cycle_cycle 14849595
texture_issue_cycle 0
memory_issue_cycle 152530
pushed_from_shader_icnt_l2_icnt 0
tex_icnt_l2_queue 0
icnt_ROP_queue 0
l2_queue_pop 0
l2_queue_reply 0
l2_dram_push 0
l2_dram_rop 0
l2_icnt_push 0
l2_dram_queue_pop 0
push_in_dram 0
push_from_dram 0
dram_l2_reached 0
icnt_back_to_shader 1017451327
reached_shader_from_icnt 144574
reach_tex_from_l2 0
reach_glob_from_icnt 0
reach_L1_from_tex 0
reached_global_from_glob 0
finish_inst 0
ROP_no_push_l2_queue_push 0
ROP_extra_cycles 0
l2_dram_rop_count 0
NO_INST_ISSUE 10193434
opp_for_ooo 0
opp_for_mem 0
dram_access_total 0
dram_write_req_total 0
dram_read_req_total 0
NUMBER OF MEM ISSUES 716388
MEMORY STALLS SUM 11509885
l2_cache_bank_access 146848 l2_cache_bank_miss 899
l2_cache_access 146848 l2_cache_miss 899
l2_pending 2394 l2_res_fail 20359
c_mem_resource_stall 0 s_mem_bk_conf 79592 gl_mem_resource_stall 55883 gl_mem_coal_stall 0 gl_mem_data_port_stall 0
icnt_creat_inj 0
icnt_creat_arrival 0
icnt_inj_arrival 0
icnt_creat_inj_READ_REQUEST 0
icnt_creat_arrival_READ_REQUEST 0
icnt_inj_arrival_READ_REQUEST 0
icnt_creat_inj_WRITE_REQUEST 0
icnt_creat_arrival_WRITE_REQUEST 0
icnt_inj_arrival_WRITE_REQUEST 0
icnt_creat_inj_READ_REPLY 0
icnt_creat_arrival_READ_REPLY 0
icnt_inj_arrival_READ_REPLY 0
icnt_creat_inj_WRITE_REPLY 0
icnt_creat_arrival_WRITE_REPLY 0
icnt_inj_arrival_WRITE_REPLY 0
icnt_mem_total_time_spend_Ishita 0
L2_FINAL_STATS_HERE
L2_cache_access_total_Ishita 146848
L2_cache_access_miss_Ishita 899
L2_cache_access_pending_Ishita 2394
L2_cache_access_resfail_Ishita 40718
DRAM MEM_STATS_HERE
simple_dram_count 0
delay_tot_sum 0
hits_num_total 0
access_num_total 0
hits_read_num_total 0
read_num_total 0
hits_write_num_total 0
write_num_total 0
banks_1time_total 0
banks_acess_total_Ishita 0
banks_time_rw_total 0
banks_access_rw_total_Ishita 0
banks_time_ready_total 0
banks_access_ready_total_Ishita 0
average row locality 0 0 
tot_DRAM_reads 0
tot_DRAM_writes 0
bwutil_total 0
gpu_stall_dramfull_total 2681
gpu_stall_icnt2sh_total 0
icnt2mem_latency_tot 0
icnt2sh_latency_tot 0
n_act_tot 0
n_pre_tot 0
n_req_tot 0
n_wr_tot 0
total_dL1_misses 0
total_dL1_accesses 0
total_dL1_miss_rate 0
L2_total_cache_accesses 146848
L2_total_cache_misses 899
L2_total_cache_miss_rate 0.00612198
L2_total_cache_reservation_fails 20359
L1I_total_cache_accesses 2594529
L1I_total_cache_misses 89229
L1I_total_cache_miss_rate 0.0343912
L1I_total_cache_pending_hits 0
L1I_total_cache_reservation_fails 0
L1D_total_cache_accesses 123720
L1D_total_cache_misses 116654
L1D_total_cache_miss_rate 0.942887
L1D_total_cache_pending_hits 0
L1C_total_cache_accesses 0
L1C_total_cache_misses 0
NONE L1C_total_cache_miss_rate 0
L1D_total_cache_reservation_fails 136704
L1C_total_cache_pending_hits 0
L1C_total_cache_reservation_fails 0
L1T_total_cache_accesses 0
L1T_total_cache_misses 0
NONE L1T_total_cache_miss_rate 0
L1T_total_cache_pending_hits 0
L1T_total_cache_reservation_fails 0
comp_inst_finish_time 13084173
mem_inst_finish_time 3989508
ibuffer_flush_count1 0
ibuffer_flush_count2 0
ibuffer_flush_count3 0
replay_flush_count 0
GPGPU-Sim: *** simulation thread exiting ***
GPGPU-Sim: *** exit detected ***
