

        *** GPGPU-Sim Simulator Version 4.2.0  [build gpgpu-sim_git-commit-fc80690a07466c1876745320413ad46fcb9c3275_modified_18.0] ***


GPGPU-Sim: Configuration options:

-save_embedded_ptx                      0 # saves ptx files embedded in binary as <n>.ptx
-keep                                   0 # keep intermediate files created by GPGPU-Sim when interfacing with external programs
-gpgpu_ptx_save_converted_ptxplus                    0 # Saved converted ptxplus to a file
-gpgpu_occupancy_sm_number                   75 # The SM number to pass to ptxas when getting register usage for computing GPU occupancy. This parameter is required in the config.
-ptx_opcode_latency_int      4,13,4,5,145,32 # Opcode latencies for integers <ADD,MAX,MUL,MAD,DIV,SHFL>Default 1,1,19,25,145,32
-ptx_opcode_latency_fp          4,13,4,5,39 # Opcode latencies for single precision floating points <ADD,MAX,MUL,MAD,DIV>Default 1,1,1,1,30
-ptx_opcode_latency_dp         8,19,8,8,330 # Opcode latencies for double precision floating points <ADD,MAX,MUL,MAD,DIV>Default 8,8,8,8,335
-ptx_opcode_latency_sfu                  100 # Opcode latencies for SFU instructionsDefault 8
-ptx_opcode_latency_tesnor                   64 # Opcode latencies for Tensor instructionsDefault 64
-ptx_opcode_initiation_int          2,2,2,2,8,4 # Opcode initiation intervals for integers <ADD,MAX,MUL,MAD,DIV,SHFL>Default 1,1,4,4,32,4
-ptx_opcode_initiation_fp            2,2,2,2,4 # Opcode initiation intervals for single precision floating points <ADD,MAX,MUL,MAD,DIV>Default 1,1,1,1,5
-ptx_opcode_initiation_dp          4,4,4,4,130 # Opcode initiation intervals for double precision floating points <ADD,MAX,MUL,MAD,DIV>Default 8,8,8,8,130
-ptx_opcode_initiation_sfu                    8 # Opcode initiation intervals for sfu instructionsDefault 8
-ptx_opcode_initiation_tensor                   64 # Opcode initiation intervals for tensor instructionsDefault 64
-cdp_latency         7200,8000,100,12000,1600 # CDP API latency <cudaStreamCreateWithFlags, cudaGetParameterBufferV2_init_perWarp, cudaGetParameterBufferV2_perKernel, cudaLaunchDeviceV2_init_perWarp, cudaLaunchDevicV2_perKernel>Default 7200,8000,100,12000,1600
-network_mode                           2 # Interconnection network mode
-inter_config_file                   mesh # Interconnection network config file
-icnt_in_buffer_limit                  512 # in_buffer_limit
-icnt_out_buffer_limit                  512 # out_buffer_limit
-icnt_subnets                           2 # subnets
-icnt_arbiter_algo                      1 # arbiter_algo
-icnt_verbose                           0 # inct_verbose
-icnt_grant_cycles                      1 # grant_cycles
-gpgpu_ptx_use_cuobjdump                    1 # Use cuobjdump to extract ptx and sass from binaries
-gpgpu_experimental_lib_support                    0 # Try to extract code from cuda libraries [Broken because of unknown cudaGetExportTable]
-checkpoint_option                      0 #  checkpointing flag (0 = no checkpoint)
-checkpoint_kernel                      1 #  checkpointing during execution of which kernel (1- 1st kernel)
-checkpoint_CTA                         0 #  checkpointing after # of CTA (< less than total CTA)
-resume_option                          0 #  resume flag (0 = no resume)
-resume_kernel                          0 #  Resume from which kernel (1= 1st kernel)
-resume_CTA                             0 #  resume from which CTA 
-checkpoint_CTA_t                       0 #  resume from which CTA 
-checkpoint_insn_Y                      0 #  resume from which CTA 
-gpgpu_ptx_convert_to_ptxplus                    0 # Convert SASS (native ISA) to ptxplus and run ptxplus
-gpgpu_ptx_force_max_capability                   75 # Force maximum compute capability
-gpgpu_ptx_inst_debug_to_file                    0 # Dump executed instructions' debug information to file
-gpgpu_ptx_inst_debug_file       inst_debug.txt # Executed instructions' debug output file
-gpgpu_ptx_inst_debug_thread_uid                    1 # Thread UID for executed instructions' debug output
-gpgpu_simd_model                       1 # 1 = post-dominator
-gpgpu_shader_core_pipeline              1024:32 # shader core pipeline config, i.e., {<nthread>:<warpsize>}
-gpgpu_tex_cache:l1  N:4:128:256,L:R:m:N:L,T:512:8,128:2 # per-shader L1 texture cache  (READ-ONLY) config  {<nsets>:<bsize>:<assoc>,<rep>:<wr>:<alloc>:<wr_alloc>,<mshr>:<N>:<merge>,<mq>:<rf>}
-gpgpu_const_cache:l1 N:128:64:8,L:R:f:N:L,S:2:64,4 # per-shader L1 constant memory cache  (READ-ONLY) config  {<nsets>:<bsize>:<assoc>,<rep>:<wr>:<alloc>:<wr_alloc>,<mshr>:<N>:<merge>,<mq>} 
-gpgpu_cache:il1     N:64:128:16,L:R:f:N:L,S:2:48,4 # shader L1 instruction cache config  {<nsets>:<bsize>:<assoc>,<rep>:<wr>:<alloc>:<wr_alloc>,<mshr>:<N>:<merge>,<mq>} 
-gpgpu_cache:dl1     S:1:128:512,L:L:s:N:L,A:256:8,16:0,32 # per-shader L1 data cache config  {<nsets>:<bsize>:<assoc>,<rep>:<wr>:<alloc>:<wr_alloc>,<mshr>:<N>:<merge>,<mq> | none}
-gpgpu_l1_banks                         4 # The number of L1 cache banks
-gpgpu_l1_banks_byte_interleaving                   32 # l1 banks byte interleaving granularity
-gpgpu_l1_banks_hashing_function                    0 # l1 banks hashing function
-gpgpu_l1_latency                      20 # L1 Hit Latency
-gpgpu_smem_latency                    20 # smem Latency
-gpgpu_cache:dl1PrefL1                 none # per-shader L1 data cache config  {<nsets>:<bsize>:<assoc>,<rep>:<wr>:<alloc>:<wr_alloc>,<mshr>:<N>:<merge>,<mq> | none}
-gpgpu_cache:dl1PrefShared                 none # per-shader L1 data cache config  {<nsets>:<bsize>:<assoc>,<rep>:<wr>:<alloc>:<wr_alloc>,<mshr>:<N>:<merge>,<mq> | none}
-gpgpu_gmem_skip_L1D                    0 # global memory access skip L1D cache (implements -Xptxas -dlcm=cg, default=no skip)
-gpgpu_perfect_mem                      0 # enable perfect memory mode (no cache miss)
-gpgpu_perfect_mem_data                    0 # no wait for data on scoreboard
-gpgpu_write_sched_order                    0 # write order in which warps were executed in file
-gpgpu_follow_defined_sched_order                    0 # follow sched order written in file
-gpgpu_print_stall_data                    0 # Print verbose stall data per cycle
-gpgpu_print_cout_statements                    0 # Print verbose stall data per cycle
-gpgpu_sched_all_warps                    0 # All schedulers see all warps
-gpgpu_reply_buffer                     0 # Replay instructions which could not be executed later
-gpgpu_reply_buffer_seperate_mem_comp                    0 # Replay instructions which could not be executed later
-n_regfile_gating_group                    4 # group of lanes that should be read/written together)
-gpgpu_clock_gated_reg_file                    0 # enable clock gated reg file for power calculations
-gpgpu_clock_gated_lanes                    1 # enable clock gated lanes for power calculations
-gpgpu_shader_registers                65536 # Number of registers per shader core. Limits number of concurrent CTAs. (default 8192)
-gpgpu_registers_per_block                65536 # Maximum number of registers per CTA. (default 8192)
-gpgpu_ignore_resources_limitation                    0 # gpgpu_ignore_resources_limitation (default 0)
-gpgpu_shader_cta                      32 # Maximum number of concurrent CTAs in shader (default 8)
-gpgpu_num_cta_barriers                   16 # Maximum number of named barriers per CTA (default 16)
-gpgpu_n_clusters                      34 # number of processing clusters
-gpgpu_n_cores_per_cluster                    1 # number of simd cores per cluster
-gpgpu_n_cluster_ejection_buffer_size                   32 # number of packets in ejection buffer
-gpgpu_n_ldst_response_buffer_size                    2 # number of response packets in ld/st unit ejection buffer
-gpgpu_shmem_per_block                65536 # Size of shared memory per thread block or CTA (default 48kB)
-gpgpu_shmem_size                   65536 # Size of shared memory per shader core (default 16kB)
-gpgpu_adaptive_cache_config                    0 # adaptive_cache_config
-gpgpu_shmem_sizeDefault                65536 # Size of shared memory per shader core (default 16kB)
-gpgpu_shmem_size_PrefL1                16384 # Size of shared memory per shader core (default 16kB)
-gpgpu_shmem_size_PrefShared                16384 # Size of shared memory per shader core (default 16kB)
-gpgpu_shmem_num_banks                   32 # Number of banks in the shared memory in each shader core (default 16)
-gpgpu_shmem_limited_broadcast                    0 # Limit shared memory to do one broadcast per cycle (default on)
-gpgpu_shmem_warp_parts                    1 # Number of portions a warp is divided into for shared memory bank conflict check 
-gpgpu_mem_unit_ports                    1 # The number of memory transactions allowed per core cycle
-gpgpu_shmem_warp_parts                    1 # Number of portions a warp is divided into for shared memory bank conflict check 
-gpgpu_warpdistro_shader                   -1 # Specify which shader core to collect the warp size distribution from
-gpgpu_warp_issue_shader                    0 # Specify which shader core to collect the warp issue distribution from
-gpgpu_local_mem_map                    1 # Mapping from local memory space address to simulated GPU physical address space (default = enabled)
-gpgpu_num_reg_banks                   16 # Number of register banks (default = 8)
-gpgpu_reg_bank_use_warp_id                    0 # Use warp ID in mapping registers to banks (default = off)
-gpgpu_sub_core_model                    1 # Sub Core Volta/Pascal model (default = off)
-gpgpu_enable_specialized_operand_collector                    0 # enable_specialized_operand_collector
-gpgpu_operand_collector_num_units_sp                    4 # number of collector units (default = 4)
-gpgpu_operand_collector_num_units_dp                    0 # number of collector units (default = 0)
-gpgpu_operand_collector_num_units_sfu                    4 # number of collector units (default = 4)
-gpgpu_operand_collector_num_units_int                    0 # number of collector units (default = 0)
-gpgpu_operand_collector_num_units_tensor_core                    4 # number of collector units (default = 4)
-gpgpu_operand_collector_num_units_mem                    2 # number of collector units (default = 2)
-gpgpu_operand_collector_num_units_gen                    8 # number of collector units (default = 0)
-gpgpu_operand_collector_num_in_ports_sp                    1 # number of collector unit in ports (default = 1)
-gpgpu_operand_collector_num_in_ports_dp                    0 # number of collector unit in ports (default = 0)
-gpgpu_operand_collector_num_in_ports_sfu                    1 # number of collector unit in ports (default = 1)
-gpgpu_operand_collector_num_in_ports_int                    0 # number of collector unit in ports (default = 0)
-gpgpu_operand_collector_num_in_ports_tensor_core                    1 # number of collector unit in ports (default = 1)
-gpgpu_operand_collector_num_in_ports_mem                    1 # number of collector unit in ports (default = 1)
-gpgpu_operand_collector_num_in_ports_gen                    8 # number of collector unit in ports (default = 0)
-gpgpu_operand_collector_num_out_ports_sp                    1 # number of collector unit in ports (default = 1)
-gpgpu_operand_collector_num_out_ports_dp                    0 # number of collector unit in ports (default = 0)
-gpgpu_operand_collector_num_out_ports_sfu                    1 # number of collector unit in ports (default = 1)
-gpgpu_operand_collector_num_out_ports_int                    0 # number of collector unit in ports (default = 0)
-gpgpu_operand_collector_num_out_ports_tensor_core                    1 # number of collector unit in ports (default = 1)
-gpgpu_operand_collector_num_out_ports_mem                    1 # number of collector unit in ports (default = 1)
-gpgpu_operand_collector_num_out_ports_gen                    8 # number of collector unit in ports (default = 0)
-gpgpu_coalesce_arch                   75 # Coalescing arch (GT200 = 13, Fermi = 20)
-gpgpu_num_sched_per_core                    4 # Number of warp schedulers per core
-gpgpu_max_insn_issue_per_warp                    1 # Max number of instructions that can be issued per warp in one cycle by scheduler (either 1 or 2)
-gpgpu_dual_issue_diff_exec_units                    1 # should dual issue use two different execution unit resources (Default = 1)
-gpgpu_simt_core_sim_order                    1 # Select the simulation order of cores in a cluster (0=Fix, 1=Round-Robin)
-gpgpu_pipeline_widths 4,0,4,4,4,4,0,4,4,4,8,4,4 # Pipeline widths ID_OC_SP,ID_OC_DP,ID_OC_INT,ID_OC_SFU,ID_OC_MEM,OC_EX_SP,OC_EX_DP,OC_EX_INT,OC_EX_SFU,OC_EX_MEM,EX_WB,ID_OC_TENSOR_CORE,OC_EX_TENSOR_CORE
-gpgpu_tensor_core_avail                    1 # Tensor Core Available (default=0)
-gpgpu_num_sp_units                     4 # Number of SP units (default=1)
-gpgpu_num_dp_units                     0 # Number of DP units (default=0)
-gpgpu_num_int_units                    4 # Number of INT units (default=0)
-gpgpu_num_sfu_units                    4 # Number of SF units (default=1)
-gpgpu_num_tensor_core_units                    4 # Number of tensor_core units (default=1)
-gpgpu_num_mem_units                    1 # Number if ldst units (default=1) WARNING: not hooked up to anything
-gpgpu_scheduler                      gto # Scheduler configuration: < lrr | gto | two_level_active > If two_level_active:<num_active_warps>:<inner_prioritization>:<outer_prioritization>For complete list of prioritization values see shader.h enum scheduler_prioritization_typeDefault: gto
-gpgpu_concurrent_kernel_sm                    0 # Support concurrent kernels on a SM (default = disabled)
-gpgpu_perfect_inst_const_cache                    0 # perfect inst and const cache mode, so all inst and const hits in the cache(default = disabled)
-gpgpu_perfect_control                    0 # perfect control so that all control hazardsare resolved immediately
-gpgpu_pending_write_ignore                    0 # Ignore Pending Writes
-gpgpu_ignore_synchronization                    0 # Ignores synchronization (CAREFUL: may break execution)
-gpgpu_inst_fetch_throughput                    4 # the number of fetched intruction per warp each cycle
-gpgpu_reg_file_port_throughput                    2 # the number ports of the register file
-specialized_unit_1         1,4,4,4,4,BRA # specialized unit config {<enabled>,<num_units>:<latency>:<initiation>,<ID_OC_SPEC>:<OC_EX_SPEC>,<NAME>}
-specialized_unit_2       1,1,200,4,4,TEX # specialized unit config {<enabled>,<num_units>:<latency>:<initiation>,<ID_OC_SPEC>:<OC_EX_SPEC>,<NAME>}
-specialized_unit_3      1,4,8,4,4,TENSOR # specialized unit config {<enabled>,<num_units>:<latency>:<initiation>,<ID_OC_SPEC>:<OC_EX_SPEC>,<NAME>}
-specialized_unit_4         1,4,4,4,4,UDP # specialized unit config {<enabled>,<num_units>:<latency>:<initiation>,<ID_OC_SPEC>:<OC_EX_SPEC>,<NAME>}
-specialized_unit_5         0,4,4,4,4,BRA # specialized unit config {<enabled>,<num_units>:<latency>:<initiation>,<ID_OC_SPEC>:<OC_EX_SPEC>,<NAME>}
-specialized_unit_6         0,4,4,4,4,BRA # specialized unit config {<enabled>,<num_units>:<latency>:<initiation>,<ID_OC_SPEC>:<OC_EX_SPEC>,<NAME>}
-specialized_unit_7         0,4,4,4,4,BRA # specialized unit config {<enabled>,<num_units>:<latency>:<initiation>,<ID_OC_SPEC>:<OC_EX_SPEC>,<NAME>}
-specialized_unit_8         0,4,4,4,4,BRA # specialized unit config {<enabled>,<num_units>:<latency>:<initiation>,<ID_OC_SPEC>:<OC_EX_SPEC>,<NAME>}
-gpgpu_perf_sim_memcpy                    1 # Fill the L2 cache on memcpy
-gpgpu_simple_dram_model                    0 # simple_dram_model with fixed latency and BW
-gpgpu_dram_scheduler                    1 # 0 = fifo, 1 = FR-FCFS (defaul)
-gpgpu_dram_partition_queues          64:64:64:64 # i2$:$2d:d2$:$2i
-l2_ideal                               0 # Use a ideal L2 cache that always hit
-gpgpu_cache:dl2     S:64:128:16,L:B:m:L:P,A:192:4,32:0,32 # unified banked L2 data cache config  {<nsets>:<bsize>:<assoc>,<rep>:<wr>:<alloc>:<wr_alloc>,<mshr>:<N>:<merge>,<mq>}
-gpgpu_cache:dl2_texture_only                    0 # L2 cache used for texture only
-gpgpu_n_mem                           16 # number of memory modules (e.g. memory controllers) in gpu
-gpgpu_n_sub_partition_per_mchannel                    2 # number of memory subpartition in each memory module
-gpgpu_n_mem_per_ctrlr                    1 # number of memory chips per memory controller
-gpgpu_memlatency_stat                   14 # track and display latency statistics 0x2 enables MC, 0x4 enables queue logs
-gpgpu_frfcfs_dram_sched_queue_size                   64 # 0 = unlimited (default); # entries per chip
-gpgpu_dram_return_queue_size                  192 # 0 = unlimited (default); # entries per chip
-gpgpu_dram_buswidth                    2 # default = 4 bytes (8 bytes per cycle at DDR)
-gpgpu_dram_burst_length                   16 # Burst length of each DRAM request (default = 4 data bus cycle)
-dram_data_command_freq_ratio                    4 # Frequency ratio between DRAM data bus and command bus (default = 2 times, i.e. DDR)
-gpgpu_dram_timing_opt nbk=16:CCD=4:RRD=10:RCD=20:RAS=50:RP=20:RC=62: CL=20:WL=8:CDLR=9:WR=20:nbkgrp=4:CCDL=4:RTPL=4 # DRAM timing parameters = {nbk:tCCD:tRRD:tRCD:tRAS:tRP:tRC:CL:WL:tCDLR:tWR:nbkgrp:tCCDL:tRTPL}
-gpgpu_l2_rop_latency                  160 # ROP queue latency (default 85)
-dram_latency                         100 # DRAM latency (default 30)
-dram_dual_bus_interface                    0 # dual_bus_interface (default = 0) 
-dram_bnk_indexing_policy                    0 # dram_bnk_indexing_policy (0 = normal indexing, 1 = Xoring with the higher bits) (Default = 0)
-dram_bnkgrp_indexing_policy                    1 # dram_bnkgrp_indexing_policy (0 = take higher bits, 1 = take lower bits) (Default = 0)
-dram_seperate_write_queue_enable                    0 # Seperate_Write_Queue_Enable
-dram_write_queue_size             32:28:16 # Write_Queue_Size
-dram_elimnate_rw_turnaround                    0 # elimnate_rw_turnaround i.e set tWTR and tRTW = 0
-icnt_flit_size                        40 # icnt_flit_size
-gpgpu_mem_addr_mapping dramid@8;00000000.00000000.00000000.00000000.0000RRRR.RRRRRRRR.RBBBCCCC.BCCSSSSS # mapping memory address to dram model {dramid@<start bit>;<memory address map>}
-gpgpu_mem_addr_test                    0 # run sweep test to check address mapping for aliased address
-gpgpu_mem_address_mask                    1 # 0 = old addressing mask, 1 = new addressing mask, 2 = new add. mask + flipped bank sel and chip sel bits
-gpgpu_memory_partition_indexing                    0 # 0 = no indexing, 1 = bitwise xoring, 2 = IPoly, 3 = custom indexing
-accelwattch_xml_file accelwattch_ptx_sim.xml # AccelWattch XML file
-power_simulation_enabled                    1 # Turn on power simulator (1=On, 0=Off)
-power_per_cycle_dump                    0 # Dump detailed power output each cycle
-hw_perf_file_name            hw_perf.csv # Hardware Performance Statistics file
-hw_perf_bench_name                       # Kernel Name in Hardware Performance Statistics file
-power_simulation_mode                    0 # Switch performance counter input for power simulation (0=Sim, 1=HW, 2=HW-Sim Hybrid)
-dvfs_enabled                           0 # Turn on DVFS for power model
-aggregate_power_stats                    0 # Accumulate power across all kernels
-accelwattch_hybrid_perfsim_L1_RH                    0 # Get L1 Read Hits for Accelwattch-Hybrid from Accel-Sim
-accelwattch_hybrid_perfsim_L1_RM                    0 # Get L1 Read Misses for Accelwattch-Hybrid from Accel-Sim
-accelwattch_hybrid_perfsim_L1_WH                    0 # Get L1 Write Hits for Accelwattch-Hybrid from Accel-Sim
-accelwattch_hybrid_perfsim_L1_WM                    0 # Get L1 Write Misses for Accelwattch-Hybrid from Accel-Sim
-accelwattch_hybrid_perfsim_L2_RH                    0 # Get L2 Read Hits for Accelwattch-Hybrid from Accel-Sim
-accelwattch_hybrid_perfsim_L2_RM                    0 # Get L2 Read Misses for Accelwattch-Hybrid from Accel-Sim
-accelwattch_hybrid_perfsim_L2_WH                    0 # Get L2 Write Hits for Accelwattch-Hybrid from Accel-Sim
-accelwattch_hybrid_perfsim_L2_WM                    0 # Get L2 Write Misses for Accelwattch-Hybrid from Accel-Sim
-accelwattch_hybrid_perfsim_CC_ACC                    0 # Get Constant Cache Acesses for Accelwattch-Hybrid from Accel-Sim
-accelwattch_hybrid_perfsim_SHARED_ACC                    0 # Get Shared Memory Acesses for Accelwattch-Hybrid from Accel-Sim
-accelwattch_hybrid_perfsim_DRAM_RD                    0 # Get DRAM Reads for Accelwattch-Hybrid from Accel-Sim
-accelwattch_hybrid_perfsim_DRAM_WR                    0 # Get DRAM Writes for Accelwattch-Hybrid from Accel-Sim
-accelwattch_hybrid_perfsim_NOC                    0 # Get Interconnect Acesses for Accelwattch-Hybrid from Accel-Sim
-accelwattch_hybrid_perfsim_PIPE_DUTY                    0 # Get Pipeline Duty Cycle Acesses for Accelwattch-Hybrid from Accel-Sim
-accelwattch_hybrid_perfsim_NUM_SM_IDLE                    0 # Get Number of Idle SMs for Accelwattch-Hybrid from Accel-Sim
-accelwattch_hybrid_perfsim_CYCLES                    0 # Get Executed Cycles for Accelwattch-Hybrid from Accel-Sim
-accelwattch_hybrid_perfsim_VOLTAGE                    0 # Get Chip Voltage for Accelwattch-Hybrid from Accel-Sim
-power_trace_enabled                    0 # produce a file for the power trace (1=On, 0=Off)
-power_trace_zlevel                     6 # Compression level of the power trace output log (0=no comp, 9=highest)
-steady_power_levels_enabled                    0 # produce a file for the steady power levels (1=On, 0=Off)
-steady_state_definition                  8:4 # allowed deviation:number of samples
-gpgpu_max_cycle                        0 # terminates gpu simulation early (0 = no limit)
-gpgpu_max_insn                         0 # terminates gpu simulation early (0 = no limit)
-gpgpu_max_cta                          0 # terminates gpu simulation early (0 = no limit)
-gpgpu_max_completed_cta                    0 # terminates gpu simulation early (0 = no limit)
-gpgpu_runtime_stat                   500 # display runtime statistics such as dram utilization {<freq>:<flag>}
-liveness_message_freq                    1 # Minimum number of seconds between simulation liveness messages (0 = always print)
-gpgpu_compute_capability_major                    7 # Major compute capability version number
-gpgpu_compute_capability_minor                    5 # Minor compute capability version number
-gpgpu_flush_l1_cache                    1 # Flush L1 cache at the end of each kernel call
-gpgpu_flush_l2_cache                    0 # Flush L2 cache at the end of each kernel call
-gpgpu_deadlock_detect                    1 # Stop the simulation at deadlock (1=on (default), 0=off)
-gpgpu_ptx_instruction_classification                    0 # if enabled will classify ptx instruction types per kernel (Max 255 kernels now)
-gpgpu_ptx_sim_mode                     0 # Select between Performance (default) or Functional simulation (1)
-gpgpu_clock_domains 1905.0:1905.0:1905.0:3500.0 # Clock Domain Frequencies in MhZ {<Core Clock>:<ICNT Clock>:<L2 Clock>:<DRAM Clock>}
-gpgpu_max_concurrent_kernel                    8 # maximum kernels that can run concurrently on GPU
-gpgpu_cflog_interval                    0 # Interval between each snapshot in control flow logger
-visualizer_enabled                     0 # Turn on visualizer output (1=On, 0=Off)
-visualizer_outputfile                 NULL # Specifies the output log file for visualizer
-visualizer_zlevel                      6 # Compression level of the visualizer output log (0=no comp, 9=highest)
-gpgpu_stack_size_limit                 1024 # GPU thread stack size
-gpgpu_heap_size_limit              8388608 # GPU malloc heap size 
-gpgpu_runtime_sync_depth_limit                    2 # GPU device runtime synchronize depth
-gpgpu_runtime_pending_launch_count_limit                 2048 # GPU device runtime pending launch count
-trace_enabled                          0 # Turn on traces
-trace_components                    none # comma seperated list of traces to enable. Complete list found in trace_streams.tup. Default none
-trace_sampling_core                    0 # The core which is printed using CORE_DPRINTF. Default 0
-trace_sampling_memory_partition                   -1 # The memory partition which is printed using MEMPART_DPRINTF. Default -1 (i.e. all)
-enable_ptx_file_line_stats                    1 # Turn on PTX source line statistic profiling. (1 = On)
-ptx_line_stats_filename gpgpu_inst_stats.txt # Output file for PTX source line statistics.
-gpgpu_kernel_launch_latency                 5000 # Kernel launch latency in cycles. Default: 0
-gpgpu_cdp_enabled                      0 # Turn on CDP
-gpgpu_TB_launch_latency                    0 # thread block launch latency in cycles. Default: 0
-trace               ../../../../hw_run/rodinia_2.0-ft/11.0/streamcluster-rodinia-2.0-ft/3_6_16_1024_1024_100_none_output_txt_1___data_result_3_6_16_1024_1024_100_none_1_txt/traces/kernelslist.g # traces kernel filetraces kernel file directory
-trace_opcode_latency_initiation_int                  4,2 # Opcode latencies and initiation for integers in trace driven mode <latency,initiation>
-trace_opcode_latency_initiation_sp                  4,2 # Opcode latencies and initiation for sp in trace driven mode <latency,initiation>
-trace_opcode_latency_initiation_dp                  8,4 # Opcode latencies and initiation for dp in trace driven mode <latency,initiation>
-trace_opcode_latency_initiation_sfu                 20,8 # Opcode latencies and initiation for sfu in trace driven mode <latency,initiation>
-trace_opcode_latency_initiation_tensor                  8,4 # Opcode latencies and initiation for tensor in trace driven mode <latency,initiation>
-trace_opcode_latency_initiation_spec_op_1                  4,4 # specialized unit config <latency,initiation>
-trace_opcode_latency_initiation_spec_op_2                200,4 # specialized unit config <latency,initiation>
-trace_opcode_latency_initiation_spec_op_3                  8,4 # specialized unit config <latency,initiation>
-trace_opcode_latency_initiation_spec_op_4                  4,2 # specialized unit config <latency,initiation>
-trace_opcode_latency_initiation_spec_op_5                  4,4 # specialized unit config <latency,initiation>
-trace_opcode_latency_initiation_spec_op_6                  4,4 # specialized unit config <latency,initiation>
-trace_opcode_latency_initiation_spec_op_7                  4,4 # specialized unit config <latency,initiation>
-trace_opcode_latency_initiation_spec_op_8                  4,4 # specialized unit config <latency,initiation>
DRAM Timing Options:
nbk                                    16 # number of banks
CCD                                     4 # column to column delay
RRD                                    10 # minimal delay between activation of rows in different banks
RCD                                    20 # row to column delay
RAS                                    50 # time needed to activate row
RP                                     20 # time needed to precharge (deactivate) row
RC                                     62 # row cycle time
CDLR                                    9 # switching from write to read (changes tWTR)
WR                                     20 # last data-in to row precharge
CL                                     20 # CAS latency
WL                                      8 # Write latency
nbkgrp                                  4 # number of bank groups
CCDL                                    4 # column to column delay between accesses to different bank groups
RTPL                                    4 # read to precharge delay between accesses to different bank groups
Total number of memory sub partition = 32
addr_dec_mask[CHIP]  = 0000000000000f00 	high:12 low:8
addr_dec_mask[BK]    = 0000000000070080 	high:19 low:7
addr_dec_mask[ROW]   = 00000000fff80000 	high:32 low:19
addr_dec_mask[COL]   = 000000000000f07f 	high:16 low:0
addr_dec_mask[BURST] = 000000000000001f 	high:5 low:0
sub_partition_id_mask = 0000000000000080
GPGPU-Sim uArch: clock freqs: 1905000000.000000:1905000000.000000:1905000000.000000:3500000000.000000
GPGPU-Sim uArch: clock periods: 0.00000000052493438320:0.00000000052493438320:0.00000000052493438320:0.00000000028571428571
*** Initializing Memory Statistics ***
GPGPU-Sim uArch: performance model initialization complete.
launching memcpy command : MemcpyHtoD,0x00007febe3708000,1024
launching memcpy command : MemcpyHtoD,0x00007febe3710400,65536
launching memcpy command : MemcpyHtoD,0x00007febe3707000,4096
launching memcpy command : MemcpyHtoD,0x00007febe3708400,32768
Processing kernel ../../../../hw_run/rodinia_2.0-ft/11.0/streamcluster-rodinia-2.0-ft/3_6_16_1024_1024_100_none_output_txt_1___data_result_3_6_16_1024_1024_100_none_1_txt/traces/kernel-1.traceg
-kernel name = _Z12pgain_kerneliilP5PointiPfS1_PiPb
-kernel id = 1
-grid dim = (2,1,1)
-block dim = (512,1,1)
-shmem = 64
-nregs = 32
-binary version = 70
-cuda stream id = 0
-shmem base_addr = 0x00007fec18000000
-local mem base_addr = 0x00007fec1a000000
-nvbit version = 1.4
-accelsim tracer version = 3
launching kernel command : ../../../../hw_run/rodinia_2.0-ft/11.0/streamcluster-rodinia-2.0-ft/3_6_16_1024_1024_100_none_output_txt_1___data_result_3_6_16_1024_1024_100_none_1_txt/traces/kernel-1.traceg
GPGPU-Sim uArch: Shader 0 bind to kernel 1 '_Z12pgain_kerneliilP5PointiPfS1_PiPb'
GPGPU-Sim uArch: CTA/core = 2, limited by: threads
thread block = 0,0,0
GPGPU-Sim uArch: Shader 1 bind to kernel 1 '_Z12pgain_kerneliilP5PointiPfS1_PiPb'
thread block = 1,0,0
Destroy streams for kernel 1: size 0
kernel_name = _Z12pgain_kerneliilP5PointiPfS1_PiPb 
kernel_launch_uid = 1 
gpu_sim_cycle = 18233
gpu_sim_insn = 154794
gpu_ipc =       8.4898
gpu_tot_sim_cycle = 18233
gpu_tot_stall_cycle = 7517
tot_cycles_exec_all_SM = 105844
cycles_passed = 18233
gpu_tot_sim_insn = 154794
gpu_tot_ipc =       8.4898
gpu_tot_issued_cta = 2
gpu_occupancy = 49.5263% 
gpu_tot_occupancy = 49.5263% 
max_total_param_size = 0
gpu_stall_dramfull = 0
gpu_stall_icnt2sh    = 0
partiton_level_parallism =       0.2561
partiton_level_parallism_total  =       0.2561
partiton_level_parallism_util =       1.8800
partiton_level_parallism_util_total  =       1.8800
L2_BW  =      16.3358 GB/Sec
L2_BW_total  =      16.3358 GB/Sec
gpu_total_sim_rate=25799

========= Core cache stats =========
L1I_cache:
	L1I_total_cache_accesses = 2682
	L1I_total_cache_misses = 766
	L1I_total_cache_miss_rate = 0.2856
	L1I_total_cache_pending_hits = 0
	L1I_total_cache_reservation_fails = 0
L1D_cache:
	L1D_cache_core[0]: Access = 2954, Miss = 2534, Miss_rate = 0.858, Pending_hits = 0, Reservation_fails = 2827
	L1D_cache_core[1]: Access = 2955, Miss = 2515, Miss_rate = 0.851, Pending_hits = 0, Reservation_fails = 2844
	L1D_cache_core[2]: Access = 0, Miss = 0, Miss_rate = -nan, Pending_hits = 0, Reservation_fails = 0
	L1D_cache_core[3]: Access = 0, Miss = 0, Miss_rate = -nan, Pending_hits = 0, Reservation_fails = 0
	L1D_cache_core[4]: Access = 0, Miss = 0, Miss_rate = -nan, Pending_hits = 0, Reservation_fails = 0
	L1D_cache_core[5]: Access = 0, Miss = 0, Miss_rate = -nan, Pending_hits = 0, Reservation_fails = 0
	L1D_cache_core[6]: Access = 0, Miss = 0, Miss_rate = -nan, Pending_hits = 0, Reservation_fails = 0
	L1D_cache_core[7]: Access = 0, Miss = 0, Miss_rate = -nan, Pending_hits = 0, Reservation_fails = 0
	L1D_cache_core[8]: Access = 0, Miss = 0, Miss_rate = -nan, Pending_hits = 0, Reservation_fails = 0
	L1D_cache_core[9]: Access = 0, Miss = 0, Miss_rate = -nan, Pending_hits = 0, Reservation_fails = 0
	L1D_cache_core[10]: Access = 0, Miss = 0, Miss_rate = -nan, Pending_hits = 0, Reservation_fails = 0
	L1D_cache_core[11]: Access = 0, Miss = 0, Miss_rate = -nan, Pending_hits = 0, Reservation_fails = 0
	L1D_cache_core[12]: Access = 0, Miss = 0, Miss_rate = -nan, Pending_hits = 0, Reservation_fails = 0
	L1D_cache_core[13]: Access = 0, Miss = 0, Miss_rate = -nan, Pending_hits = 0, Reservation_fails = 0
	L1D_cache_core[14]: Access = 0, Miss = 0, Miss_rate = -nan, Pending_hits = 0, Reservation_fails = 0
	L1D_cache_core[15]: Access = 0, Miss = 0, Miss_rate = -nan, Pending_hits = 0, Reservation_fails = 0
	L1D_cache_core[16]: Access = 0, Miss = 0, Miss_rate = -nan, Pending_hits = 0, Reservation_fails = 0
	L1D_cache_core[17]: Access = 0, Miss = 0, Miss_rate = -nan, Pending_hits = 0, Reservation_fails = 0
	L1D_cache_core[18]: Access = 0, Miss = 0, Miss_rate = -nan, Pending_hits = 0, Reservation_fails = 0
	L1D_cache_core[19]: Access = 0, Miss = 0, Miss_rate = -nan, Pending_hits = 0, Reservation_fails = 0
	L1D_cache_core[20]: Access = 0, Miss = 0, Miss_rate = -nan, Pending_hits = 0, Reservation_fails = 0
	L1D_cache_core[21]: Access = 0, Miss = 0, Miss_rate = -nan, Pending_hits = 0, Reservation_fails = 0
	L1D_cache_core[22]: Access = 0, Miss = 0, Miss_rate = -nan, Pending_hits = 0, Reservation_fails = 0
	L1D_cache_core[23]: Access = 0, Miss = 0, Miss_rate = -nan, Pending_hits = 0, Reservation_fails = 0
	L1D_cache_core[24]: Access = 0, Miss = 0, Miss_rate = -nan, Pending_hits = 0, Reservation_fails = 0
	L1D_cache_core[25]: Access = 0, Miss = 0, Miss_rate = -nan, Pending_hits = 0, Reservation_fails = 0
	L1D_cache_core[26]: Access = 0, Miss = 0, Miss_rate = -nan, Pending_hits = 0, Reservation_fails = 0
	L1D_cache_core[27]: Access = 0, Miss = 0, Miss_rate = -nan, Pending_hits = 0, Reservation_fails = 0
	L1D_cache_core[28]: Access = 0, Miss = 0, Miss_rate = -nan, Pending_hits = 0, Reservation_fails = 0
	L1D_cache_core[29]: Access = 0, Miss = 0, Miss_rate = -nan, Pending_hits = 0, Reservation_fails = 0
	L1D_cache_core[30]: Access = 0, Miss = 0, Miss_rate = -nan, Pending_hits = 0, Reservation_fails = 0
	L1D_cache_core[31]: Access = 0, Miss = 0, Miss_rate = -nan, Pending_hits = 0, Reservation_fails = 0
	L1D_cache_core[32]: Access = 0, Miss = 0, Miss_rate = -nan, Pending_hits = 0, Reservation_fails = 0
	L1D_cache_core[33]: Access = 0, Miss = 0, Miss_rate = -nan, Pending_hits = 0, Reservation_fails = 0
	L1D_total_cache_accesses = 5909
	L1D_total_cache_misses = 5049
	L1D_total_cache_miss_rate = 0.8545
	L1D_total_cache_pending_hits = 0
	L1D_total_cache_reservation_fails = 5671
	L1D_cache_data_port_util = 0.033
	L1D_cache_fill_port_util = 0.148
L1C_cache:
	L1C_total_cache_accesses = 0
	L1C_total_cache_misses = 0
	L1C_total_cache_pending_hits = 0
	L1C_total_cache_reservation_fails = 0
L1T_cache:
	L1T_total_cache_accesses = 0
	L1T_total_cache_misses = 0
	L1T_total_cache_pending_hits = 0
	L1T_total_cache_reservation_fails = 0

Total_core_cache_stats:
	Total_core_cache_stats_breakdown[GLOBAL_ACC_R][HIT] = 230
	Total_core_cache_stats_breakdown[GLOBAL_ACC_R][HIT_RESERVED] = 0
	Total_core_cache_stats_breakdown[GLOBAL_ACC_R][MISS] = 3856
	Total_core_cache_stats_breakdown[GLOBAL_ACC_R][RESERVATION_FAIL] = 4783
	Total_core_cache_stats_breakdown[GLOBAL_ACC_R][SECTOR_MISS] = 1129
	Total_core_cache_stats_breakdown[GLOBAL_ACC_R][MSHR_HIT] = 1081
	Total_core_cache_stats_breakdown[LOCAL_ACC_R][HIT] = 0
	Total_core_cache_stats_breakdown[LOCAL_ACC_R][HIT_RESERVED] = 0
	Total_core_cache_stats_breakdown[LOCAL_ACC_R][MISS] = 0
	Total_core_cache_stats_breakdown[LOCAL_ACC_R][RESERVATION_FAIL] = 0
	Total_core_cache_stats_breakdown[LOCAL_ACC_R][SECTOR_MISS] = 0
	Total_core_cache_stats_breakdown[LOCAL_ACC_R][MSHR_HIT] = 0
	Total_core_cache_stats_breakdown[CONST_ACC_R][HIT] = 0
	Total_core_cache_stats_breakdown[CONST_ACC_R][HIT_RESERVED] = 0
	Total_core_cache_stats_breakdown[CONST_ACC_R][MISS] = 0
	Total_core_cache_stats_breakdown[CONST_ACC_R][RESERVATION_FAIL] = 0
	Total_core_cache_stats_breakdown[CONST_ACC_R][SECTOR_MISS] = 0
	Total_core_cache_stats_breakdown[CONST_ACC_R][MSHR_HIT] = 0
	Total_core_cache_stats_breakdown[TEXTURE_ACC_R][HIT] = 0
	Total_core_cache_stats_breakdown[TEXTURE_ACC_R][HIT_RESERVED] = 0
	Total_core_cache_stats_breakdown[TEXTURE_ACC_R][MISS] = 0
	Total_core_cache_stats_breakdown[TEXTURE_ACC_R][RESERVATION_FAIL] = 0
	Total_core_cache_stats_breakdown[TEXTURE_ACC_R][SECTOR_MISS] = 0
	Total_core_cache_stats_breakdown[TEXTURE_ACC_R][MSHR_HIT] = 0
	Total_core_cache_stats_breakdown[GLOBAL_ACC_W][HIT] = 630
	Total_core_cache_stats_breakdown[GLOBAL_ACC_W][HIT_RESERVED] = 0
	Total_core_cache_stats_breakdown[GLOBAL_ACC_W][MISS] = 64
	Total_core_cache_stats_breakdown[GLOBAL_ACC_W][RESERVATION_FAIL] = 888
	Total_core_cache_stats_breakdown[GLOBAL_ACC_W][SECTOR_MISS] = 0
	Total_core_cache_stats_breakdown[GLOBAL_ACC_W][MSHR_HIT] = 0
	Total_core_cache_stats_breakdown[LOCAL_ACC_W][HIT] = 0
	Total_core_cache_stats_breakdown[LOCAL_ACC_W][HIT_RESERVED] = 0
	Total_core_cache_stats_breakdown[LOCAL_ACC_W][MISS] = 0
	Total_core_cache_stats_breakdown[LOCAL_ACC_W][RESERVATION_FAIL] = 0
	Total_core_cache_stats_breakdown[LOCAL_ACC_W][SECTOR_MISS] = 0
	Total_core_cache_stats_breakdown[LOCAL_ACC_W][MSHR_HIT] = 0
	Total_core_cache_stats_breakdown[L1_WRBK_ACC][HIT] = 0
	Total_core_cache_stats_breakdown[L1_WRBK_ACC][HIT_RESERVED] = 0
	Total_core_cache_stats_breakdown[L1_WRBK_ACC][MISS] = 0
	Total_core_cache_stats_breakdown[L1_WRBK_ACC][RESERVATION_FAIL] = 0
	Total_core_cache_stats_breakdown[L1_WRBK_ACC][SECTOR_MISS] = 0
	Total_core_cache_stats_breakdown[L1_WRBK_ACC][MSHR_HIT] = 0
	Total_core_cache_stats_breakdown[L2_WRBK_ACC][HIT] = 0
	Total_core_cache_stats_breakdown[L2_WRBK_ACC][HIT_RESERVED] = 0
	Total_core_cache_stats_breakdown[L2_WRBK_ACC][MISS] = 0
	Total_core_cache_stats_breakdown[L2_WRBK_ACC][RESERVATION_FAIL] = 0
	Total_core_cache_stats_breakdown[L2_WRBK_ACC][SECTOR_MISS] = 0
	Total_core_cache_stats_breakdown[L2_WRBK_ACC][MSHR_HIT] = 0
	Total_core_cache_stats_breakdown[INST_ACC_R][HIT] = 1916
	Total_core_cache_stats_breakdown[INST_ACC_R][HIT_RESERVED] = 0
	Total_core_cache_stats_breakdown[INST_ACC_R][MISS] = 766
	Total_core_cache_stats_breakdown[INST_ACC_R][RESERVATION_FAIL] = 0
	Total_core_cache_stats_breakdown[INST_ACC_R][SECTOR_MISS] = 0
	Total_core_cache_stats_breakdown[INST_ACC_R][MSHR_HIT] = 694
	Total_core_cache_stats_breakdown[L1_WR_ALLOC_R][HIT] = 0
	Total_core_cache_stats_breakdown[L1_WR_ALLOC_R][HIT_RESERVED] = 0
	Total_core_cache_stats_breakdown[L1_WR_ALLOC_R][MISS] = 0
	Total_core_cache_stats_breakdown[L1_WR_ALLOC_R][RESERVATION_FAIL] = 0
	Total_core_cache_stats_breakdown[L1_WR_ALLOC_R][SECTOR_MISS] = 0
	Total_core_cache_stats_breakdown[L1_WR_ALLOC_R][MSHR_HIT] = 0
	Total_core_cache_stats_breakdown[L2_WR_ALLOC_R][HIT] = 0
	Total_core_cache_stats_breakdown[L2_WR_ALLOC_R][HIT_RESERVED] = 0
	Total_core_cache_stats_breakdown[L2_WR_ALLOC_R][MISS] = 0
	Total_core_cache_stats_breakdown[L2_WR_ALLOC_R][RESERVATION_FAIL] = 0
	Total_core_cache_stats_breakdown[L2_WR_ALLOC_R][SECTOR_MISS] = 0
	Total_core_cache_stats_breakdown[L2_WR_ALLOC_R][MSHR_HIT] = 0
	Total_core_cache_stats_breakdown[GLOBAL_ACC_R][TOTAL_ACCESS] = 6296
	Total_core_cache_stats_breakdown[GLOBAL_ACC_W][TOTAL_ACCESS] = 694
	Total_core_cache_stats_breakdown[INST_ACC_R][TOTAL_ACCESS] = 3376

Total_core_cache_fail_stats:
	Total_core_cache_fail_stats_breakdown[GLOBAL_ACC_R][MISS_QUEUE_FULL] = 4783
	Total_core_cache_fail_stats_breakdown[GLOBAL_ACC_W][MISS_QUEUE_FULL] = 888
ctas_completed 2, Shader 0 warp_id issue ditsribution:
warp_id:
0, 1, 2, 3, 4, 5, 6, 7, 8, 9, 10, 11, 12, 13, 14, 15, 
distro:
252, 162, 162, 162, 162, 162, 162, 162, 162, 162, 162, 162, 162, 162, 162, 162, 
gpgpu_n_tot_thrd_icount = 154794
gpgpu_n_tot_w_icount = 5364
gpgpu_n_stall_shd_mem = 3094
gpgpu_n_mem_read_local = 0
gpgpu_n_mem_write_local = 0
gpgpu_n_mem_read_global = 3904
gpgpu_n_mem_write_global = 694
gpgpu_n_mem_texture = 0
gpgpu_n_mem_const = 0
gpgpu_n_load_insn  = 21128
gpgpu_n_store_insn = 1228
gpgpu_n_shmem_insn = 16416
gpgpu_n_sstarr_insn = 0
gpgpu_n_tex_insn = 0
gpgpu_n_const_mem_insn = 0
gpgpu_n_param_mem_insn = 0
gpgpu_n_shmem_bkconflict = 0
gpgpu_n_cache_bkconflict = 0
gpgpu_n_intrawarp_mshr_merge = 0
gpgpu_n_cmem_portconflict = 0
gpgpu_stall_shd_mem[c_mem][resource_stall] = 0
gpgpu_stall_shd_mem[s_mem][bk_conf] = 0
gpgpu_stall_shd_mem[gl_mem][resource_stall] = 2374
gpgpu_stall_shd_mem[gl_mem][coal_stall] = 720
gpgpu_stall_shd_mem[gl_mem][data_port_stall] = 0
gpu_reg_bank_conflict_stalls = 0
Warp Occupancy Distribution:
Stall:7683	W0_Idle:77337	W0_Scoreboard:15626	W1:174	W2:6	W3:18	W4:12	W5:24	W6:24	W7:36	W8:54	W9:18	W10:0	W11:0	W12:0	W13:0	W14:0	W15:0	W16:0	W17:0	W18:0	W19:0	W20:0	W21:0	W22:0	W23:18	W24:54	W25:36	W26:24	W27:24	W28:12	W29:18	W30:6	W31:4	W32:4636
single_issue_nums: WS0:1476	WS1:1296	WS2:1296	WS3:1296	
dual_issue_nums: WS0:0	WS1:0	WS2:0	WS3:0	
traffic_breakdown_coretomem[GLOBAL_ACC_R] = 31232 {8:3904,}
traffic_breakdown_coretomem[GLOBAL_ACC_W] = 27760 {40:694,}
traffic_breakdown_coretomem[INST_ACC_R] = 576 {8:72,}
traffic_breakdown_memtocore[GLOBAL_ACC_R] = 156160 {40:3904,}
traffic_breakdown_memtocore[GLOBAL_ACC_W] = 5552 {8:694,}
traffic_breakdown_memtocore[INST_ACC_R] = 11520 {40:288,}
ENTERING ACCELSIM HERE
maxmflatency = 496 
max_icnt2mem_latency = 149 
maxmrqlatency = 30 
max_icnt2sh_latency = 125 
averagemflatency = 246 
avg_icnt2mem_latency = 62 
avg_mrq_latency = 2 
avg_icnt2sh_latency = 6 
mrq_lat_table:764 	21 	19 	107 	41 	0 	0 	0 	0 	0 	0 	0 	0 	0 	0 	0 	0 	0 	0 	0 	0 	0 	0 	0 	0 	0 	0 	0 	0 	0 	0 	0 	
dq_lat_table:0 	0 	0 	0 	0 	0 	0 	0 	0 	0 	0 	0 	0 	0 	0 	0 	0 	0 	0 	0 	0 	0 	0 	0 	0 	0 	0 	0 	0 	0 	0 	0 	
mf_lat_table:0 	0 	0 	0 	0 	0 	0 	3249 	1349 	0 	0 	0 	0 	0 	0 	0 	0 	0 	0 	0 	0 	0 	0 	0 	0 	0 	0 	0 	0 	0 	0 	0 	
icnt2mem_lat_table:0 	71 	1 	0 	560 	2440 	1586 	12 	0 	0 	0 	0 	0 	0 	0 	0 	0 	0 	0 	0 	0 	0 	0 	0 	
icnt2sh_lat_table:0 	3333 	622 	260 	194 	149 	40 	0 	0 	0 	0 	0 	0 	0 	0 	0 	0 	0 	0 	0 	0 	0 	0 	0 	
mf_lat_pw_table:0 	0 	0 	0 	0 	0 	0 	10 	4 	0 	0 	0 	0 	0 	0 	0 	0 	0 	0 	0 	0 	0 	0 	0 	0 	0 	0 	0 	0 	0 	0 	0 	
maximum concurrent accesses to same row:
dram[0]:         8         8         0         0         0         1         0         0         0         0         0         0         0         0         0         0 
dram[1]:         4         4         0         1         0         1         0         0         0         0         0         1         0         0         0         0 
dram[2]:         4         8         0         0         0         0         0         0         0         0         1         1         1         0         0         0 
dram[3]:         8         8         0         0         0         0         0         0         0         0         0         1         0         1         0         0 
dram[4]:         8         8         0         0         1         0         0         0         0         1         0         0         0         0         1         0 
dram[5]:         8         4         0         0         0         0         2         0         0         0         0         0         0         0         0         0 
dram[6]:         4         4         0         0         1         0         0         1         0         0         0         1         0         0         0         0 
dram[7]:         4         4         0         0         0         0         0         0         1         0         0         0         0         1         0         0 
dram[8]:         4         1         0         0         0         0         0         0         0         0         0         0         0         0         0         0 
dram[9]:         0         4         0         0         0         0         0         0         0         0         0         1         0         0         1         0 
dram[10]:         8         4         0         0         0         0         0         0         2         0         0         0         0         0         0         0 
dram[11]:         8        20         0         0         0         0         0         1         0         0         0         1         0         0         0         0 
dram[12]:         0         1         0         0         0         0         0         0         0         0         0         0         0         0         0         0 
dram[13]:         0         1         0         0         0         0         0         0         0         0         0         0         1         0         0         1 
dram[14]:         0         4         1         0         0         0         0         0         1         0         0         1         0         0         0         0 
dram[15]:         4         4         0         0         0         0         0         0         0         1         0         0         0         0         0         0 
maximum service time to same row:
dram[0]:     12077     11738         0         0     16673     16246         0         0     16083     16602         0         0         0         0     16161         0 
dram[1]:     11745     12139         0     16087     16360     16104         0         0         0         0         0     16159         0         0         0         0 
dram[2]:     12547     11416         0         0     16090         0     16677     16594     16100     16421     16139     16244     16092     16091     16245     16079 
dram[3]:     10018      9592         0         0         0         0         0     16106     16084     16616     16164     16421         0     16096     16081         0 
dram[4]:     10461      8912         0     16147     16149         0         0         0         0     16581         0     16079     16671         0     16090     16615 
dram[5]:      9096      9544         0         0     16612         0     16148         0     16086     16682         0     16343         0         0     16417     16084 
dram[6]:      9231      8908     16137         0     16102         0     16090     16096         0     16341         0     16136     16601         0         0         0 
dram[7]:      8736      9042     16102         0         0         0         0         0     16362     16358     16612     16356     16610     16081         0         0 
dram[8]:     14756     16077     16325         0     16098         0         0     16676         0         0         0     16417         0         0         0     16087 
dram[9]:     17319     15058         0         0     16133         0     16422     16133     16090     16681     16163     16093         0         0     16098         0 
dram[10]:      9352     16080         0         0         0         0         0         0     16166         0     16593         0         0     16100     16247         0 
dram[11]:     11418      9658         0     16323     16606     16135         0     16134         0     16102     16131     16507         0         0         0         0 
dram[12]:     17315     16083         0     16674         0     16161         0         0         0         0         0     16147     16086         0         0     16361 
dram[13]:     17338     16419         0     16336     16341     16088     16163         0         0     16610         0     16507     16338     16363     16340     16083 
dram[14]:     17337      9975     16085         0     16097         0         0     16249     16094     16096     16419     16418         0         0         0     16342 
dram[15]:     10308     10639     16092     16099     16613         0     16146     16600     16094     16083         0         0         0     16088         0     16614 
average row accesses per activate:
dram[0]: 13.000000 13.000000      -nan      -nan  1.000000  1.000000      -nan      -nan  1.000000  1.000000      -nan      -nan      -nan      -nan  1.000000      -nan 
dram[1]: 12.000000 12.000000      -nan  1.000000  1.000000  1.000000      -nan      -nan      -nan      -nan      -nan  1.000000      -nan      -nan      -nan      -nan 
dram[2]:  8.333333 14.000000      -nan      -nan  1.000000      -nan  1.000000  1.000000  1.000000  2.000000  1.333333  1.000000  1.000000  1.000000  1.000000  1.000000 
dram[3]:  9.666667  9.666667      -nan      -nan      -nan      -nan      -nan  1.000000  1.000000  2.000000  1.000000  1.000000      -nan  1.333333  1.000000      -nan 
dram[4]: 14.000000  7.500000      -nan  1.000000  1.000000      -nan      -nan      -nan      -nan  1.000000      -nan  1.000000  1.000000      -nan  1.000000  1.000000 
dram[5]:  9.666667 11.500000      -nan      -nan  2.000000      -nan  1.500000      -nan  1.000000  1.000000      -nan  1.000000      -nan      -nan  1.000000  2.000000 
dram[6]: 12.000000 12.000000  1.000000      -nan  1.000000      -nan  1.000000  1.000000      -nan  1.000000      -nan  1.000000  1.000000      -nan      -nan      -nan 
dram[7]: 12.000000  5.400000  2.000000      -nan      -nan      -nan      -nan      -nan  1.000000  1.000000  1.000000  1.000000  1.000000  1.000000      -nan      -nan 
dram[8]: 11.500000  7.333333  1.000000      -nan  2.000000      -nan      -nan  1.000000      -nan      -nan      -nan  1.000000      -nan      -nan      -nan  1.000000 
dram[9]: 20.000000  6.500000      -nan      -nan  1.000000      -nan  1.000000  1.000000  1.000000  1.000000  1.000000  1.000000      -nan      -nan  1.000000      -nan 
dram[10]:  9.666667  6.500000      -nan      -nan      -nan      -nan      -nan      -nan  1.500000      -nan  1.000000      -nan      -nan  1.000000  1.000000      -nan 
dram[11]: 13.500000  9.333333      -nan  1.000000  1.000000  1.000000      -nan  1.000000      -nan  1.000000  1.000000  1.000000      -nan      -nan      -nan      -nan 
dram[12]: 20.000000 10.500000      -nan  1.000000      -nan  1.000000      -nan      -nan      -nan      -nan      -nan  1.000000  1.000000      -nan      -nan  1.000000 
dram[13]: 20.000000 10.500000      -nan  1.000000  1.000000  1.000000  1.000000      -nan      -nan  1.000000      -nan  1.000000  1.000000  1.000000  1.000000  1.000000 
dram[14]: 20.000000 11.500000  1.000000      -nan  1.000000      -nan      -nan  1.000000  1.000000  1.000000  2.000000  1.000000      -nan      -nan      -nan  1.000000 
dram[15]: 12.000000 11.500000  1.000000  1.000000  2.000000      -nan  1.000000  1.000000  1.000000  1.000000      -nan      -nan      -nan  1.000000      -nan  1.000000 
average row locality = 952/223 = 4.269058
number of total memory accesses made:
dram[0]:         0         0         0         0         0         0         0         0         0         0         0         0         0         0         0         0 
dram[1]:         0         0         0         0         0         0         0         0         0         0         0         0         0         0         0         0 
dram[2]:         0         0         0         0         0         0         0         0         0         0         0         0         0         0         0         0 
dram[3]:         0         0         0         0         0         0         0         0         0         0         0         0         0         0         0         0 
dram[4]:         0         0         0         0         0         0         0         0         0         0         0         0         0         0         0         0 
dram[5]:         0         0         0         0         0         0         0         0         0         0         0         0         0         0         0         0 
dram[6]:         0         0         0         0         0         0         0         0         0         0         0         0         0         0         0         0 
dram[7]:         0         0         0         0         0         0         0         0         0         0         0         0         0         0         0         0 
dram[8]:         0         0         0         0         0         0         0         0         0         0         0         0         0         0         0         0 
dram[9]:         0         0         0         0         0         0         0         0         0         0         0         0         0         0         0         0 
dram[10]:         0         0         0         0         0         0         0         0         0         0         0         0         0         0         0         0 
dram[11]:         0         0         0         0         0         0         0         0         0         0         0         0         0         0         0         0 
dram[12]:         0         0         0         0         0         0         0         0         0         0         0         0         0         0         0         0 
dram[13]:         0         0         0         0         0         0         0         0         0         0         0         0         0         0         0         0 
dram[14]:         0         0         0         0         0         0         0         0         0         0         0         0         0         0         0         0 
dram[15]:         0         0         0         0         0         0         0         0         0         0         0         0         0         0         0         0 
total accesses: 0
min_bank_accesses = 0!
min_chip_accesses = 0!
number of total read accesses:
dram[0]:        26        26         0         0         1         2         0         0         1         1         0         0         0         0         1         0 
dram[1]:        24        24         0         2         1         3         0         0         0         0         0         2         0         0         0         0 
dram[2]:        25        28         0         0         1         0         1         1         1         2         4         2         2         1         1         1 
dram[3]:        29        29         0         0         0         0         0         1         1         2         1         3         0         4         1         0 
dram[4]:        28        30         0         1         2         0         0         0         0         2         0         1         1         0         2         1 
dram[5]:        29        23         0         0         2         0         3         0         1         1         0         1         0         0         1         2 
dram[6]:        24        24         1         0         2         0         1         2         0         1         0         2         1         0         0         0 
dram[7]:        24        27         2         0         0         0         0         0         2         1         1         1         1         2         0         0 
dram[8]:        23        22         1         0         2         0         0         1         0         0         0         1         0         0         0         1 
dram[9]:        20        26         0         0         1         0         1         1         1         1         1         3         0         0         4         0 
dram[10]:        29        26         0         0         0         0         0         0         3         0         1         0         0         1         1         0 
dram[11]:        27        28         0         1         1         1         0         2         0         1         1         2         0         0         0         0 
dram[12]:        20        21         0         1         0         1         0         0         0         0         0         1         1         0         0         1 
dram[13]:        20        21         0         1         1         1         1         0         0         1         0         1         2         1         1         2 
dram[14]:        20        23         2         0         1         0         0         1         2         1         2         2         0         0         0         1 
dram[15]:        24        23         1         1         2         0         1         1         1         2         0         0         0         1         0         1 
total dram reads = 952
min_bank_accesses = 0!
chip skew: 71/46 = 1.54
number of total write accesses:
dram[0]:         0         0         0         0         0         0         0         0         0         0         0         0         0         0         0         0 
dram[1]:         0         0         0         0         0         0         0         0         0         0         0         0         0         0         0         0 
dram[2]:         0         0         0         0         0         0         0         0         0         0         0         0         0         0         0         0 
dram[3]:         0         0         0         0         0         0         0         0         0         0         0         0         0         0         0         0 
dram[4]:         0         0         0         0         0         0         0         0         0         0         0         0         0         0         0         0 
dram[5]:         0         0         0         0         0         0         0         0         0         0         0         0         0         0         0         0 
dram[6]:         0         0         0         0         0         0         0         0         0         0         0         0         0         0         0         0 
dram[7]:         0         0         0         0         0         0         0         0         0         0         0         0         0         0         0         0 
dram[8]:         0         0         0         0         0         0         0         0         0         0         0         0         0         0         0         0 
dram[9]:         0         0         0         0         0         0         0         0         0         0         0         0         0         0         0         0 
dram[10]:         0         0         0         0         0         0         0         0         0         0         0         0         0         0         0         0 
dram[11]:         0         0         0         0         0         0         0         0         0         0         0         0         0         0         0         0 
dram[12]:         0         0         0         0         0         0         0         0         0         0         0         0         0         0         0         0 
dram[13]:         0         0         0         0         0         0         0         0         0         0         0         0         0         0         0         0 
dram[14]:         0         0         0         0         0         0         0         0         0         0         0         0         0         0         0         0 
dram[15]:         0         0         0         0         0         0         0         0         0         0         0         0         0         0         0         0 
total dram writes = 0
min_bank_accesses = 0!
min_chip_accesses = 0!
average mf latency per bank:
dram[0]:        707       684    none      none        1175       750    none      none         316       314    none      none      none      none         313    none  
dram[1]:        823       847    none        7454      1176       600    none      none      none      none      none         320    none      none      none      none  
dram[2]:        788       678    none      none        1165    none         314       313       320       314       323       318       323       333       317       316
dram[3]:        690       670    none      none      none      none      none         321       319       321       318       321    none         331       317    none  
dram[4]:        682       653    none       14019       329    none      none      none      none         327    none         315       313    none         321       320
dram[5]:        684       809    none      none         314    none         318    none         322       318    none         315    none      none         314       315
dram[6]:        819       822     14670    none         343    none         319       321    none         313    none         322       313    none      none      none  
dram[7]:        784       742      7521    none      none      none      none      none         323       317       321       314       314       322    none      none  
dram[8]:        828       902     14615    none         321    none      none         314    none      none      none         313    none      none      none         317
dram[9]:        951       746    none      none         319    none         317       314       321       317       316       324    none      none         334    none  
dram[10]:        656       740    none      none      none      none      none      none         320    none         313    none      none         320       314    none  
dram[11]:        675       664    none       14770       316       315    none         336    none         320       313       318    none      none      none      none  
dram[12]:        925       911    none       13978    none         313    none      none      none      none      none         314       318    none      none         315
dram[13]:        983       932    none       16592       314       316       313    none      none         313    none         314       330       315       327       324
dram[14]:        925       769      7555    none         320    none      none         315       322       329       320       319    none      none      none         315
dram[15]:        769       782     14638     14750       317    none         313       312       324       319    none      none      none         318    none         319
maximum mf latency per bank:
dram[0]:        407       409       311       271       313       324         0         0       316       314         0         0         0         0       313         0
dram[1]:        444       495       316       340       314       324         0         0         0         0         0       323         0         0         0         0
dram[2]:        496       441       272       314       317       229       314       313       320       316       328       325       324       333       317       316
dram[3]:        443       405       268       311       229       229         0       321       319       324       318       325         0       356       317         0
dram[4]:        408       432       264       314       340         0         0         0         0       341         0       315       313         0       324       320
dram[5]:        441       408       263       263       316         0       325         0       322       318         0       315         0         0       314       316
dram[6]:        428       430       318       267       364         0       319       324         0       313         0       330       313         0         0         0
dram[7]:        415       408       318       264         0         0         0         0       326       317       321       314       314       328         0         0
dram[8]:        412       414       314       266       324         0         0       314         0         0         0       313         0         0         0       317
dram[9]:        393       395       261       265       319         0       317       314       321       317       316       326         0         0       357         0
dram[10]:        397       420       269       263         0         0         0         0       327         0       313         0         0       320       314         0
dram[11]:        401       403       269       312       316       315         0       348         0       320       313       324         0         0         0         0
dram[12]:        407       393       309       313         0       313         0         0         0         0         0       314       318         0         0       315
dram[13]:        451       443       261       313       314       316       313         0         0       313         0       314       338       315       327       331
dram[14]:        394       383       324       308       320         0         0       315       325       329       321       325         0         0         0       315
dram[15]:        387       405       318       326       318         0       313       312       324       324         0         0         0       318         0       319
Memory Partition 0: 
Cache L2_bank_000:
MSHR contents

Cache L2_bank_001:
MSHR contents

In Dram Latency Queue (total = 0): 
DRAM[0]: 16 bks, busW=2 BL=16 CL=20, tRRD=10 tCCD=4, tRCD=20 tRAS=50 tRP=20 tRC=62
n_cmd=33498 n_nop=33427 n_act=10 n_pre=3 n_ref_event=0 n_req=58 n_rd=58 n_rd_L2_A=0 n_write=0 n_wr_bk=0 bw_util=0.006926
n_activity=923 dram_eff=0.2514
bk0: 26a 33383i bk1: 26a 33396i bk2: 0a 33495i bk3: 0a 33498i bk4: 1a 33479i bk5: 2a 33438i bk6: 0a 33494i bk7: 0a 33498i bk8: 1a 33477i bk9: 1a 33475i bk10: 0a 33495i bk11: 0a 33496i bk12: 0a 33497i bk13: 0a 33499i bk14: 1a 33479i bk15: 0a 33500i 

------------------------------------------------------------------------

Row_Buffer_Locality = 0.827586
Row_Buffer_Locality_read = 0.827586
Row_Buffer_Locality_write = -nan
Bank_Level_Parallism = 1.251497
Bank_Level_Parallism_Col = 0.981000
Bank_Level_Parallism_Ready = 1.068966
write_to_read_ratio_blp_rw_average = 0.000000
GrpLevelPara = 0.000000 

BW Util details:
bwutil = 0.006926 
total_CMD = 33498 
util_bw = 232 
Wasted_Col = 175 
Wasted_Row = 21 
Idle = 33070 

BW Util Bottlenecks: 
RCDc_limit = 186 
RCDWRc_limit = 0 
WTRc_limit = 0 
RTWc_limit = 0 
CCDLc_limit = 0 
rwq = 0 
CCDLc_limit_alone = 0 
WTRc_limit_alone = 0 
RTWc_limit_alone = 0 

Commands details: 
total_CMD = 33498 
n_nop = 33427 
Read = 58 
Write = 0 
L2_Alloc = 0 
L2_WB = 0 
n_act = 10 
n_pre = 3 
n_ref = 0 
n_req = 58 
total_req = 58 

Dual Bus Interface Util: 
issued_total_row = 13 
issued_total_col = 58 
Row_Bus_Util =  0.000388 
CoL_Bus_Util = 0.001731 
Either_Row_CoL_Bus_Util = 0.002120 
Issued_on_Two_Bus_Simul_Util = 0.000000 
issued_two_Eff = 0.000000 
queue_avg = 0.007314 


dram_util_bins: 0 0 0 0 0 0 0 0 0 0
dram_eff_bins: 0 0 0 0 0 0 0 0 0 0
mrqq: max=4 avg=0.00731387
Memory Partition 1: 
Cache L2_bank_002:
MSHR contents

Cache L2_bank_003:
MSHR contents

In Dram Latency Queue (total = 0): 
DRAM[1]: 16 bks, busW=2 BL=16 CL=20, tRRD=10 tCCD=4, tRCD=20 tRAS=50 tRP=20 tRC=62
n_cmd=33498 n_nop=33424 n_act=12 n_pre=6 n_ref_event=0 n_req=56 n_rd=56 n_rd_L2_A=0 n_write=0 n_wr_bk=0 bw_util=0.006687
n_activity=846 dram_eff=0.2648
bk0: 24a 33384i bk1: 24a 33412i bk2: 0a 33497i bk3: 2a 33421i bk4: 1a 33475i bk5: 3a 33396i bk6: 0a 33493i bk7: 0a 33499i bk8: 0a 33499i bk9: 0a 33499i bk10: 0a 33499i bk11: 2a 33433i bk12: 0a 33493i bk13: 0a 33497i bk14: 0a 33497i bk15: 0a 33500i 

------------------------------------------------------------------------

Row_Buffer_Locality = 0.785714
Row_Buffer_Locality_read = 0.785714
Row_Buffer_Locality_write = -nan
Bank_Level_Parallism = 1.256039
Bank_Level_Parallism_Col = 1.125392
Bank_Level_Parallism_Ready = 1.053571
write_to_read_ratio_blp_rw_average = 0.000000
GrpLevelPara = 1.125392 

BW Util details:
bwutil = 0.006687 
total_CMD = 33498 
util_bw = 224 
Wasted_Col = 196 
Wasted_Row = 83 
Idle = 32995 

BW Util Bottlenecks: 
RCDc_limit = 224 
RCDWRc_limit = 0 
WTRc_limit = 0 
RTWc_limit = 0 
CCDLc_limit = 0 
rwq = 0 
CCDLc_limit_alone = 0 
WTRc_limit_alone = 0 
RTWc_limit_alone = 0 

Commands details: 
total_CMD = 33498 
n_nop = 33424 
Read = 56 
Write = 0 
L2_Alloc = 0 
L2_WB = 0 
n_act = 12 
n_pre = 6 
n_ref = 0 
n_req = 56 
total_req = 56 

Dual Bus Interface Util: 
issued_total_row = 18 
issued_total_col = 56 
Row_Bus_Util =  0.000537 
CoL_Bus_Util = 0.001672 
Either_Row_CoL_Bus_Util = 0.002209 
Issued_on_Two_Bus_Simul_Util = 0.000000 
issued_two_Eff = 0.000000 
queue_avg = 0.005941 


dram_util_bins: 0 0 0 0 0 0 0 0 0 0
dram_eff_bins: 0 0 0 0 0 0 0 0 0 0
mrqq: max=3 avg=0.00594065
Memory Partition 2: 
Cache L2_bank_004:
MSHR contents

Cache L2_bank_005:
MSHR contents

In Dram Latency Queue (total = 0): 
DRAM[2]: 16 bks, busW=2 BL=16 CL=20, tRRD=10 tCCD=4, tRCD=20 tRAS=50 tRP=20 tRC=62
n_cmd=33498 n_nop=33402 n_act=20 n_pre=7 n_ref_event=0 n_req=70 n_rd=70 n_rd_L2_A=0 n_write=0 n_wr_bk=0 bw_util=0.008359
n_activity=1198 dram_eff=0.2337
bk0: 25a 33334i bk1: 28a 33349i bk2: 0a 33492i bk3: 0a 33495i bk4: 1a 33476i bk5: 0a 33495i bk6: 1a 33477i bk7: 1a 33481i bk8: 1a 33479i bk9: 2a 33479i bk10: 4a 33396i bk11: 2a 33436i bk12: 2a 33431i bk13: 1a 33449i bk14: 1a 33471i bk15: 1a 33478i 

------------------------------------------------------------------------

Row_Buffer_Locality = 0.714286
Row_Buffer_Locality_read = 0.714286
Row_Buffer_Locality_write = -nan
Bank_Level_Parallism = 1.272583
Bank_Level_Parallism_Col = 1.184000
Bank_Level_Parallism_Ready = 1.171429
write_to_read_ratio_blp_rw_average = 0.000000
GrpLevelPara = 1.146000 

BW Util details:
bwutil = 0.008359 
total_CMD = 33498 
util_bw = 280 
Wasted_Col = 318 
Wasted_Row = 108 
Idle = 32792 

BW Util Bottlenecks: 
RCDc_limit = 361 
RCDWRc_limit = 0 
WTRc_limit = 0 
RTWc_limit = 0 
CCDLc_limit = 0 
rwq = 0 
CCDLc_limit_alone = 0 
WTRc_limit_alone = 0 
RTWc_limit_alone = 0 

Commands details: 
total_CMD = 33498 
n_nop = 33402 
Read = 70 
Write = 0 
L2_Alloc = 0 
L2_WB = 0 
n_act = 20 
n_pre = 7 
n_ref = 0 
n_req = 70 
total_req = 70 

Dual Bus Interface Util: 
issued_total_row = 27 
issued_total_col = 70 
Row_Bus_Util =  0.000806 
CoL_Bus_Util = 0.002090 
Either_Row_CoL_Bus_Util = 0.002866 
Issued_on_Two_Bus_Simul_Util = 0.000030 
issued_two_Eff = 0.010417 
queue_avg = 0.011016 


dram_util_bins: 0 0 0 0 0 0 0 0 0 0
dram_eff_bins: 0 0 0 0 0 0 0 0 0 0
mrqq: max=4 avg=0.0110156
Memory Partition 3: 
Cache L2_bank_006:
MSHR contents

Cache L2_bank_007:
MSHR contents

In Dram Latency Queue (total = 0): 
DRAM[3]: 16 bks, busW=2 BL=16 CL=20, tRRD=10 tCCD=4, tRCD=20 tRAS=50 tRP=20 tRC=62
n_cmd=33498 n_nop=33402 n_act=17 n_pre=8 n_ref_event=0 n_req=71 n_rd=71 n_rd_L2_A=0 n_write=0 n_wr_bk=0 bw_util=0.008478
n_activity=1293 dram_eff=0.2196
bk0: 29a 33336i bk1: 29a 33375i bk2: 0a 33492i bk3: 0a 33497i bk4: 0a 33497i bk5: 0a 33499i bk6: 0a 33500i bk7: 1a 33481i bk8: 1a 33475i bk9: 2a 33476i bk10: 1a 33474i bk11: 3a 33397i bk12: 0a 33496i bk13: 4a 33365i bk14: 1a 33474i bk15: 0a 33496i 

------------------------------------------------------------------------

Row_Buffer_Locality = 0.760563
Row_Buffer_Locality_read = 0.760563
Row_Buffer_Locality_write = -nan
Bank_Level_Parallism = 1.167504
Bank_Level_Parallism_Col = 1.087356
Bank_Level_Parallism_Ready = 1.000000
write_to_read_ratio_blp_rw_average = 0.000000
GrpLevelPara = 1.087356 

BW Util details:
bwutil = 0.008478 
total_CMD = 33498 
util_bw = 284 
Wasted_Col = 282 
Wasted_Row = 147 
Idle = 32785 

BW Util Bottlenecks: 
RCDc_limit = 316 
RCDWRc_limit = 0 
WTRc_limit = 0 
RTWc_limit = 0 
CCDLc_limit = 0 
rwq = 0 
CCDLc_limit_alone = 0 
WTRc_limit_alone = 0 
RTWc_limit_alone = 0 

Commands details: 
total_CMD = 33498 
n_nop = 33402 
Read = 71 
Write = 0 
L2_Alloc = 0 
L2_WB = 0 
n_act = 17 
n_pre = 8 
n_ref = 0 
n_req = 71 
total_req = 71 

Dual Bus Interface Util: 
issued_total_row = 25 
issued_total_col = 71 
Row_Bus_Util =  0.000746 
CoL_Bus_Util = 0.002120 
Either_Row_CoL_Bus_Util = 0.002866 
Issued_on_Two_Bus_Simul_Util = 0.000000 
issued_two_Eff = 0.000000 
queue_avg = 0.006896 


dram_util_bins: 0 0 0 0 0 0 0 0 0 0
dram_eff_bins: 0 0 0 0 0 0 0 0 0 0
mrqq: max=3 avg=0.00689593
Memory Partition 4: 
Cache L2_bank_008:
MSHR contents

Cache L2_bank_009:
MSHR contents

In Dram Latency Queue (total = 0): 
DRAM[4]: 16 bks, busW=2 BL=16 CL=20, tRRD=10 tCCD=4, tRCD=20 tRAS=50 tRP=20 tRC=62
n_cmd=33498 n_nop=33407 n_act=16 n_pre=7 n_ref_event=0 n_req=68 n_rd=68 n_rd_L2_A=0 n_write=0 n_wr_bk=0 bw_util=0.00812
n_activity=1050 dram_eff=0.259
bk0: 28a 33383i bk1: 30a 33302i bk2: 0a 33491i bk3: 1a 33474i bk4: 2a 33402i bk5: 0a 33496i bk6: 0a 33499i bk7: 0a 33499i bk8: 0a 33500i bk9: 2a 33407i bk10: 0a 33496i bk11: 1a 33479i bk12: 1a 33477i bk13: 0a 33497i bk14: 2a 33438i bk15: 1a 33479i 

------------------------------------------------------------------------

Row_Buffer_Locality = 0.764706
Row_Buffer_Locality_read = 0.764706
Row_Buffer_Locality_write = -nan
Bank_Level_Parallism = 1.375734
Bank_Level_Parallism_Col = 1.112412
Bank_Level_Parallism_Ready = 1.088235
write_to_read_ratio_blp_rw_average = 0.000000
GrpLevelPara = 1.112412 

BW Util details:
bwutil = 0.008120 
total_CMD = 33498 
util_bw = 272 
Wasted_Col = 265 
Wasted_Row = 61 
Idle = 32900 

BW Util Bottlenecks: 
RCDc_limit = 296 
RCDWRc_limit = 0 
WTRc_limit = 0 
RTWc_limit = 0 
CCDLc_limit = 0 
rwq = 0 
CCDLc_limit_alone = 0 
WTRc_limit_alone = 0 
RTWc_limit_alone = 0 

Commands details: 
total_CMD = 33498 
n_nop = 33407 
Read = 68 
Write = 0 
L2_Alloc = 0 
L2_WB = 0 
n_act = 16 
n_pre = 7 
n_ref = 0 
n_req = 68 
total_req = 68 

Dual Bus Interface Util: 
issued_total_row = 23 
issued_total_col = 68 
Row_Bus_Util =  0.000687 
CoL_Bus_Util = 0.002030 
Either_Row_CoL_Bus_Util = 0.002717 
Issued_on_Two_Bus_Simul_Util = 0.000000 
issued_two_Eff = 0.000000 
queue_avg = 0.004657 


dram_util_bins: 0 0 0 0 0 0 0 0 0 0
dram_eff_bins: 0 0 0 0 0 0 0 0 0 0
mrqq: max=3 avg=0.00465699
Memory Partition 5: 
Cache L2_bank_010:
MSHR contents

Cache L2_bank_011:
MSHR contents

In Dram Latency Queue (total = 0): 
DRAM[5]: 16 bks, busW=2 BL=16 CL=20, tRRD=10 tCCD=4, tRCD=20 tRAS=50 tRP=20 tRC=62
n_cmd=33498 n_nop=33418 n_act=13 n_pre=4 n_ref_event=0 n_req=63 n_rd=63 n_rd_L2_A=0 n_write=0 n_wr_bk=0 bw_util=0.007523
n_activity=1002 dram_eff=0.2515
bk0: 29a 33337i bk1: 23a 33381i bk2: 0a 33495i bk3: 0a 33498i bk4: 2a 33474i bk5: 0a 33497i bk6: 3a 33434i bk7: 0a 33496i bk8: 1a 33471i bk9: 1a 33477i bk10: 0a 33497i bk11: 1a 33478i bk12: 0a 33497i bk13: 0a 33499i bk14: 1a 33478i bk15: 2a 33477i 

------------------------------------------------------------------------

Row_Buffer_Locality = 0.793651
Row_Buffer_Locality_read = 0.793651
Row_Buffer_Locality_write = -nan
Bank_Level_Parallism = 1.210884
Bank_Level_Parallism_Col = 1.154054
Bank_Level_Parallism_Ready = 1.142857
write_to_read_ratio_blp_rw_average = 0.000000
GrpLevelPara = 1.154054 

BW Util details:
bwutil = 0.007523 
total_CMD = 33498 
util_bw = 252 
Wasted_Col = 222 
Wasted_Row = 60 
Idle = 32964 

BW Util Bottlenecks: 
RCDc_limit = 242 
RCDWRc_limit = 0 
WTRc_limit = 0 
RTWc_limit = 0 
CCDLc_limit = 0 
rwq = 0 
CCDLc_limit_alone = 0 
WTRc_limit_alone = 0 
RTWc_limit_alone = 0 

Commands details: 
total_CMD = 33498 
n_nop = 33418 
Read = 63 
Write = 0 
L2_Alloc = 0 
L2_WB = 0 
n_act = 13 
n_pre = 4 
n_ref = 0 
n_req = 63 
total_req = 63 

Dual Bus Interface Util: 
issued_total_row = 17 
issued_total_col = 63 
Row_Bus_Util =  0.000507 
CoL_Bus_Util = 0.001881 
Either_Row_CoL_Bus_Util = 0.002388 
Issued_on_Two_Bus_Simul_Util = 0.000000 
issued_two_Eff = 0.000000 
queue_avg = 0.009075 


dram_util_bins: 0 0 0 0 0 0 0 0 0 0
dram_eff_bins: 0 0 0 0 0 0 0 0 0 0
mrqq: max=4 avg=0.00907517
Memory Partition 6: 
Cache L2_bank_012:
MSHR contents

Cache L2_bank_013:
MSHR contents

In Dram Latency Queue (total = 0): 
DRAM[6]: 16 bks, busW=2 BL=16 CL=20, tRRD=10 tCCD=4, tRCD=20 tRAS=50 tRP=20 tRC=62
n_cmd=33498 n_nop=33422 n_act=14 n_pre=5 n_ref_event=0 n_req=58 n_rd=58 n_rd_L2_A=0 n_write=0 n_wr_bk=0 bw_util=0.006926
n_activity=901 dram_eff=0.2575
bk0: 24a 33375i bk1: 24a 33396i bk2: 1a 33467i bk3: 0a 33497i bk4: 2a 33393i bk5: 0a 33494i bk6: 1a 33477i bk7: 2a 33438i bk8: 0a 33497i bk9: 1a 33479i bk10: 0a 33499i bk11: 2a 33438i bk12: 1a 33475i bk13: 0a 33496i bk14: 0a 33498i bk15: 0a 33500i 

------------------------------------------------------------------------

Row_Buffer_Locality = 0.758621
Row_Buffer_Locality_read = 0.758621
Row_Buffer_Locality_write = -nan
Bank_Level_Parallism = 1.304157
Bank_Level_Parallism_Col = 1.226087
Bank_Level_Parallism_Ready = 1.103448
write_to_read_ratio_blp_rw_average = 0.000000
GrpLevelPara = 1.226087 

BW Util details:
bwutil = 0.006926 
total_CMD = 33498 
util_bw = 232 
Wasted_Col = 206 
Wasted_Row = 100 
Idle = 32960 

BW Util Bottlenecks: 
RCDc_limit = 248 
RCDWRc_limit = 0 
WTRc_limit = 0 
RTWc_limit = 0 
CCDLc_limit = 0 
rwq = 0 
CCDLc_limit_alone = 0 
WTRc_limit_alone = 0 
RTWc_limit_alone = 0 

Commands details: 
total_CMD = 33498 
n_nop = 33422 
Read = 58 
Write = 0 
L2_Alloc = 0 
L2_WB = 0 
n_act = 14 
n_pre = 5 
n_ref = 0 
n_req = 58 
total_req = 58 

Dual Bus Interface Util: 
issued_total_row = 19 
issued_total_col = 58 
Row_Bus_Util =  0.000567 
CoL_Bus_Util = 0.001731 
Either_Row_CoL_Bus_Util = 0.002269 
Issued_on_Two_Bus_Simul_Util = 0.000030 
issued_two_Eff = 0.013158 
queue_avg = 0.007702 


dram_util_bins: 0 0 0 0 0 0 0 0 0 0
dram_eff_bins: 0 0 0 0 0 0 0 0 0 0
mrqq: max=4 avg=0.00770195
Memory Partition 7: 
Cache L2_bank_014:
MSHR contents

Cache L2_bank_015:
MSHR contents

In Dram Latency Queue (total = 0): 
DRAM[7]: 16 bks, busW=2 BL=16 CL=20, tRRD=10 tCCD=4, tRCD=20 tRAS=50 tRP=20 tRC=62
n_cmd=33498 n_nop=33414 n_act=16 n_pre=7 n_ref_event=0 n_req=61 n_rd=61 n_rd_L2_A=0 n_write=0 n_wr_bk=0 bw_util=0.007284
n_activity=1132 dram_eff=0.2155
bk0: 24a 33391i bk1: 27a 33265i bk2: 2a 33468i bk3: 0a 33492i bk4: 0a 33495i bk5: 0a 33496i bk6: 0a 33499i bk7: 0a 33501i bk8: 2a 33431i bk9: 1a 33474i bk10: 1a 33472i bk11: 1a 33480i bk12: 1a 33479i bk13: 2a 33436i bk14: 0a 33497i bk15: 0a 33499i 

------------------------------------------------------------------------

Row_Buffer_Locality = 0.737705
Row_Buffer_Locality_read = 0.737705
Row_Buffer_Locality_write = -nan
Bank_Level_Parallism = 1.258824
Bank_Level_Parallism_Col = 1.113111
Bank_Level_Parallism_Ready = 1.032787
write_to_read_ratio_blp_rw_average = 0.000000
GrpLevelPara = 1.107969 

BW Util details:
bwutil = 0.007284 
total_CMD = 33498 
util_bw = 244 
Wasted_Col = 259 
Wasted_Row = 107 
Idle = 32888 

BW Util Bottlenecks: 
RCDc_limit = 290 
RCDWRc_limit = 0 
WTRc_limit = 0 
RTWc_limit = 0 
CCDLc_limit = 0 
rwq = 0 
CCDLc_limit_alone = 0 
WTRc_limit_alone = 0 
RTWc_limit_alone = 0 

Commands details: 
total_CMD = 33498 
n_nop = 33414 
Read = 61 
Write = 0 
L2_Alloc = 0 
L2_WB = 0 
n_act = 16 
n_pre = 7 
n_ref = 0 
n_req = 61 
total_req = 61 

Dual Bus Interface Util: 
issued_total_row = 23 
issued_total_col = 61 
Row_Bus_Util =  0.000687 
CoL_Bus_Util = 0.001821 
Either_Row_CoL_Bus_Util = 0.002508 
Issued_on_Two_Bus_Simul_Util = 0.000000 
issued_two_Eff = 0.000000 
queue_avg = 0.004538 


dram_util_bins: 0 0 0 0 0 0 0 0 0 0
dram_eff_bins: 0 0 0 0 0 0 0 0 0 0
mrqq: max=3 avg=0.00453758
Memory Partition 8: 
Cache L2_bank_016:
MSHR contents

Cache L2_bank_017:
MSHR contents

In Dram Latency Queue (total = 0): 
DRAM[8]: 16 bks, busW=2 BL=16 CL=20, tRRD=10 tCCD=4, tRCD=20 tRAS=50 tRP=20 tRC=62
n_cmd=33498 n_nop=33435 n_act=10 n_pre=3 n_ref_event=0 n_req=51 n_rd=51 n_rd_L2_A=0 n_write=0 n_wr_bk=0 bw_util=0.00609
n_activity=813 dram_eff=0.2509
bk0: 23a 33392i bk1: 22a 33358i bk2: 1a 33471i bk3: 0a 33496i bk4: 2a 33475i bk5: 0a 33498i bk6: 0a 33498i bk7: 1a 33477i bk8: 0a 33497i bk9: 0a 33498i bk10: 0a 33498i bk11: 1a 33478i bk12: 0a 33497i bk13: 0a 33499i bk14: 0a 33499i bk15: 1a 33481i 

------------------------------------------------------------------------

Row_Buffer_Locality = 0.803922
Row_Buffer_Locality_read = 0.803922
Row_Buffer_Locality_write = -nan
Bank_Level_Parallism = 1.273885
Bank_Level_Parallism_Col = 1.110320
Bank_Level_Parallism_Ready = 1.058824
write_to_read_ratio_blp_rw_average = 0.000000
GrpLevelPara = 1.110320 

BW Util details:
bwutil = 0.006090 
total_CMD = 33498 
util_bw = 204 
Wasted_Col = 171 
Wasted_Row = 23 
Idle = 33100 

BW Util Bottlenecks: 
RCDc_limit = 182 
RCDWRc_limit = 0 
WTRc_limit = 0 
RTWc_limit = 0 
CCDLc_limit = 0 
rwq = 0 
CCDLc_limit_alone = 0 
WTRc_limit_alone = 0 
RTWc_limit_alone = 0 

[...]
Bank_Level_Parallism = 1.169154
Bank_Level_Parallism_Col = 1.058993
Bank_Level_Parallism_Ready = 1.012658
write_to_read_ratio_blp_rw_average = 0.000000
GrpLevelPara = 1.054676 

BW Util details:
bwutil = 0.002365 
total_CMD = 133594 
util_bw = 316 
Wasted_Col = 540 
Wasted_Row = 276 
Idle = 132462 

BW Util Bottlenecks: 
RCDc_limit = 573 
RCDWRc_limit = 0 
WTRc_limit = 0 
RTWc_limit = 0 
CCDLc_limit = 0 
rwq = 0 
CCDLc_limit_alone = 0 
WTRc_limit_alone = 0 
RTWc_limit_alone = 0 

Commands details: 
total_CMD = 133594 
n_nop = 133468 
Read = 79 
Write = 0 
L2_Alloc = 0 
L2_WB = 0 
n_act = 30 
n_pre = 17 
n_ref = 0 
n_req = 79 
total_req = 79 

Dual Bus Interface Util: 
issued_total_row = 47 
issued_total_col = 79 
Row_Bus_Util =  0.000352 
CoL_Bus_Util = 0.000591 
Either_Row_CoL_Bus_Util = 0.000943 
Issued_on_Two_Bus_Simul_Util = 0.000000 
issued_two_Eff = 0.000000 
queue_avg = 0.004618 


dram_util_bins: 0 0 0 0 0 0 0 0 0 0
dram_eff_bins: 0 0 0 0 0 0 0 0 0 0
mrqq: max=8 avg=0.00461847
Memory Partition 11: 
Cache L2_bank_022:
MSHR contents

Cache L2_bank_023:
MSHR contents

In Dram Latency Queue (total = 0): 
DRAM[11]: 16 bks, busW=2 BL=16 CL=20, tRRD=10 tCCD=4, tRCD=20 tRAS=50 tRP=20 tRC=62
n_cmd=133594 n_nop=133437 n_act=41 n_pre=25 n_ref_event=0 n_req=92 n_rd=92 n_rd_L2_A=0 n_write=0 n_wr_bk=0 bw_util=0.002755
n_activity=2536 dram_eff=0.1451
bk0: 28a 133437i bk1: 29a 133404i bk2: 5a 133382i bk3: 4a 133449i bk4: 1a 133569i bk5: 4a 133444i bk6: 1a 133567i bk7: 3a 133446i bk8: 3a 133487i bk9: 4a 133445i bk10: 2a 133522i bk11: 2a 133529i bk12: 1a 133570i bk13: 1a 133576i bk14: 3a 133534i bk15: 1a 133581i 

------------------------------------------------------------------------

Row_Buffer_Locality = 0.554348
Row_Buffer_Locality_read = 0.554348
Row_Buffer_Locality_write = -nan
Bank_Level_Parallism = 1.226002
Bank_Level_Parallism_Col = 1.107023
Bank_Level_Parallism_Ready = 1.065217
write_to_read_ratio_blp_rw_average = 0.000000
GrpLevelPara = 1.095875 

BW Util details:
bwutil = 0.002755 
total_CMD = 133594 
util_bw = 368 
Wasted_Col = 719 
Wasted_Row = 377 
Idle = 132130 

BW Util Bottlenecks: 
RCDc_limit = 773 
RCDWRc_limit = 0 
WTRc_limit = 0 
RTWc_limit = 0 
CCDLc_limit = 0 
rwq = 0 
CCDLc_limit_alone = 0 
WTRc_limit_alone = 0 
RTWc_limit_alone = 0 

Commands details: 
total_CMD = 133594 
n_nop = 133437 
Read = 92 
Write = 0 
L2_Alloc = 0 
L2_WB = 0 
n_act = 41 
n_pre = 25 
n_ref = 0 
n_req = 92 
total_req = 92 

Dual Bus Interface Util: 
issued_total_row = 66 
issued_total_col = 92 
Row_Bus_Util =  0.000494 
CoL_Bus_Util = 0.000689 
Either_Row_CoL_Bus_Util = 0.001175 
Issued_on_Two_Bus_Simul_Util = 0.000007 
issued_two_Eff = 0.006369 
queue_avg = 0.005404 


dram_util_bins: 0 0 0 0 0 0 0 0 0 0
dram_eff_bins: 0 0 0 0 0 0 0 0 0 0
mrqq: max=8 avg=0.00540443
Memory Partition 12: 
Cache L2_bank_024:
MSHR contents

Cache L2_bank_025:
MSHR contents

In Dram Latency Queue (total = 0): 
DRAM[12]: 16 bks, busW=2 BL=16 CL=20, tRRD=10 tCCD=4, tRCD=20 tRAS=50 tRP=20 tRC=62
n_cmd=133594 n_nop=133467 n_act=34 n_pre=19 n_ref_event=0 n_req=75 n_rd=75 n_rd_L2_A=0 n_write=0 n_wr_bk=0 bw_util=0.002246
n_activity=1949 dram_eff=0.1539
bk0: 22a 133466i bk1: 25a 133323i bk2: 2a 133498i bk3: 2a 133510i bk4: 0a 133587i bk5: 1a 133575i bk6: 1a 133572i bk7: 1a 133578i bk8: 5a 133454i bk9: 2a 133536i bk10: 3a 133535i bk11: 3a 133495i bk12: 1a 133571i bk13: 4a 133408i bk14: 1a 133570i bk15: 2a 133534i 

------------------------------------------------------------------------

Row_Buffer_Locality = 0.546667
Row_Buffer_Locality_read = 0.546667
Row_Buffer_Locality_write = -nan
Bank_Level_Parallism = 1.315996
Bank_Level_Parallism_Col = 1.121429
Bank_Level_Parallism_Ready = 1.013333
write_to_read_ratio_blp_rw_average = 0.000000
GrpLevelPara = 1.107143 

BW Util details:
bwutil = 0.002246 
total_CMD = 133594 
util_bw = 300 
Wasted_Col = 559 
Wasted_Row = 281 
Idle = 132454 

BW Util Bottlenecks: 
RCDc_limit = 624 
RCDWRc_limit = 0 
WTRc_limit = 0 
RTWc_limit = 0 
CCDLc_limit = 0 
rwq = 0 
CCDLc_limit_alone = 0 
WTRc_limit_alone = 0 
RTWc_limit_alone = 0 

Commands details: 
total_CMD = 133594 
n_nop = 133467 
Read = 75 
Write = 0 
L2_Alloc = 0 
L2_WB = 0 
n_act = 34 
n_pre = 19 
n_ref = 0 
n_req = 75 
total_req = 75 

Dual Bus Interface Util: 
issued_total_row = 53 
issued_total_col = 75 
Row_Bus_Util =  0.000397 
CoL_Bus_Util = 0.000561 
Either_Row_CoL_Bus_Util = 0.000951 
Issued_on_Two_Bus_Simul_Util = 0.000007 
issued_two_Eff = 0.007874 
queue_avg = 0.001662 


dram_util_bins: 0 0 0 0 0 0 0 0 0 0
dram_eff_bins: 0 0 0 0 0 0 0 0 0 0
mrqq: max=3 avg=0.00166175
Memory Partition 13: 
Cache L2_bank_026:
MSHR contents

Cache L2_bank_027:
MSHR contents

In Dram Latency Queue (total = 0): 
DRAM[13]: 16 bks, busW=2 BL=16 CL=20, tRRD=10 tCCD=4, tRCD=20 tRAS=50 tRP=20 tRC=62
n_cmd=133594 n_nop=133451 n_act=40 n_pre=25 n_ref_event=0 n_req=80 n_rd=80 n_rd_L2_A=0 n_write=0 n_wr_bk=0 bw_util=0.002395
n_activity=2461 dram_eff=0.13
bk0: 21a 133496i bk1: 23a 133446i bk2: 4a 133450i bk3: 1a 133568i bk4: 1a 133572i bk5: 3a 133491i bk6: 2a 133530i bk7: 2a 133530i bk8: 0a 133594i bk9: 3a 133535i bk10: 2a 133537i bk11: 2a 133536i bk12: 10a 133145i bk13: 1a 133564i bk14: 2a 133510i bk15: 3a 133480i 

------------------------------------------------------------------------

Row_Buffer_Locality = 0.500000
Row_Buffer_Locality_read = 0.500000
Row_Buffer_Locality_write = -nan
Bank_Level_Parallism = 1.247612
Bank_Level_Parallism_Col = 1.111389
Bank_Level_Parallism_Ready = 1.000000
write_to_read_ratio_blp_rw_average = 0.000000
GrpLevelPara = 1.085106 

BW Util details:
bwutil = 0.002395 
total_CMD = 133594 
util_bw = 320 
Wasted_Col = 665 
Wasted_Row = 419 
Idle = 132190 

BW Util Bottlenecks: 
RCDc_limit = 730 
RCDWRc_limit = 0 
WTRc_limit = 0 
RTWc_limit = 0 
CCDLc_limit = 0 
rwq = 0 
CCDLc_limit_alone = 0 
WTRc_limit_alone = 0 
RTWc_limit_alone = 0 

Commands details: 
total_CMD = 133594 
n_nop = 133451 
Read = 80 
Write = 0 
L2_Alloc = 0 
L2_WB = 0 
n_act = 40 
n_pre = 25 
n_ref = 0 
n_req = 80 
total_req = 80 

Dual Bus Interface Util: 
issued_total_row = 65 
issued_total_col = 80 
Row_Bus_Util =  0.000487 
CoL_Bus_Util = 0.000599 
Either_Row_CoL_Bus_Util = 0.001070 
Issued_on_Two_Bus_Simul_Util = 0.000015 
issued_two_Eff = 0.013986 
queue_avg = 0.001362 


dram_util_bins: 0 0 0 0 0 0 0 0 0 0
dram_eff_bins: 0 0 0 0 0 0 0 0 0 0
mrqq: max=2 avg=0.00136234
Memory Partition 14: 
Cache L2_bank_028:
MSHR contents

Cache L2_bank_029:
MSHR contents

In Dram Latency Queue (total = 0): 
DRAM[14]: 16 bks, busW=2 BL=16 CL=20, tRRD=10 tCCD=4, tRCD=20 tRAS=50 tRP=20 tRC=62
n_cmd=133594 n_nop=133453 n_act=38 n_pre=22 n_ref_event=0 n_req=81 n_rd=81 n_rd_L2_A=0 n_write=0 n_wr_bk=0 bw_util=0.002425
n_activity=2438 dram_eff=0.1329
bk0: 22a 133459i bk1: 24a 133518i bk2: 2a 133532i bk3: 1a 133574i bk4: 2a 133519i bk5: 1a 133575i bk6: 3a 133535i bk7: 4a 133459i bk8: 5a 133394i bk9: 4a 133431i bk10: 3a 133515i bk11: 3a 133488i bk12: 2a 133524i bk13: 2a 133524i bk14: 1a 133568i bk15: 2a 133534i 

------------------------------------------------------------------------

Row_Buffer_Locality = 0.530864
Row_Buffer_Locality_read = 0.530864
Row_Buffer_Locality_write = -nan
Bank_Level_Parallism = 1.242021
Bank_Level_Parallism_Col = 1.112403
Bank_Level_Parallism_Ready = 1.024390
write_to_read_ratio_blp_rw_average = 0.000000
GrpLevelPara = 1.073643 

BW Util details:
bwutil = 0.002425 
total_CMD = 133594 
util_bw = 324 
Wasted_Col = 633 
Wasted_Row = 323 
Idle = 132314 

BW Util Bottlenecks: 
RCDc_limit = 709 
RCDWRc_limit = 0 
WTRc_limit = 0 
RTWc_limit = 0 
CCDLc_limit = 0 
rwq = 0 
CCDLc_limit_alone = 0 
WTRc_limit_alone = 0 
RTWc_limit_alone = 0 

Commands details: 
total_CMD = 133594 
n_nop = 133453 
Read = 81 
Write = 0 
L2_Alloc = 0 
L2_WB = 0 
n_act = 38 
n_pre = 22 
n_ref = 0 
n_req = 81 
total_req = 81 

Dual Bus Interface Util: 
issued_total_row = 60 
issued_total_col = 81 
Row_Bus_Util =  0.000449 
CoL_Bus_Util = 0.000606 
Either_Row_CoL_Bus_Util = 0.001055 
Issued_on_Two_Bus_Simul_Util = 0.000000 
issued_two_Eff = 0.000000 
queue_avg = 0.001160 


dram_util_bins: 0 0 0 0 0 0 0 0 0 0
dram_eff_bins: 0 0 0 0 0 0 0 0 0 0
mrqq: max=3 avg=0.00116023
Memory Partition 15: 
Cache L2_bank_030:
MSHR contents

Cache L2_bank_031:
MSHR contents

In Dram Latency Queue (total = 0): 
DRAM[15]: 16 bks, busW=2 BL=16 CL=20, tRRD=10 tCCD=4, tRCD=20 tRAS=50 tRP=20 tRC=62
n_cmd=133594 n_nop=133467 n_act=32 n_pre=17 n_ref_event=0 n_req=79 n_rd=79 n_rd_L2_A=0 n_write=0 n_wr_bk=0 bw_util=0.002365
n_activity=1933 dram_eff=0.1635
bk0: 24a 133497i bk1: 25a 133463i bk2: 2a 133531i bk3: 2a 133512i bk4: 3a 133526i bk5: 1a 133571i bk6: 4a 133488i bk7: 2a 133532i bk8: 2a 133523i bk9: 4a 133453i bk10: 1a 133568i bk11: 2a 133570i bk12: 3a 133491i bk13: 2a 133530i bk14: 0a 133593i bk15: 2a 133529i 

------------------------------------------------------------------------

Row_Buffer_Locality = 0.594937
Row_Buffer_Locality_read = 0.594937
Row_Buffer_Locality_write = -nan
Bank_Level_Parallism = 1.244468
Bank_Level_Parallism_Col = 1.142433
Bank_Level_Parallism_Ready = 1.050633
write_to_read_ratio_blp_rw_average = 0.000000
GrpLevelPara = 1.129080 

BW Util details:
bwutil = 0.002365 
total_CMD = 133594 
util_bw = 316 
Wasted_Col = 516 
Wasted_Row = 246 
Idle = 132516 

BW Util Bottlenecks: 
RCDc_limit = 586 
RCDWRc_limit = 0 
WTRc_limit = 0 
RTWc_limit = 0 
CCDLc_limit = 0 
rwq = 0 
CCDLc_limit_alone = 0 
WTRc_limit_alone = 0 
RTWc_limit_alone = 0 

Commands details: 
total_CMD = 133594 
n_nop = 133467 
Read = 79 
Write = 0 
L2_Alloc = 0 
L2_WB = 0 
n_act = 32 
n_pre = 17 
n_ref = 0 
n_req = 79 
total_req = 79 

Dual Bus Interface Util: 
issued_total_row = 49 
issued_total_col = 79 
Row_Bus_Util =  0.000367 
CoL_Bus_Util = 0.000591 
Either_Row_CoL_Bus_Util = 0.000951 
Issued_on_Two_Bus_Simul_Util = 0.000007 
issued_two_Eff = 0.007874 
queue_avg = 0.001849 


dram_util_bins: 0 0 0 0 0 0 0 0 0 0
dram_eff_bins: 0 0 0 0 0 0 0 0 0 0
mrqq: max=3 avg=0.00184889

========= L2 cache stats =========
L2_cache_bank[0]: Access = 714, Miss = 53, Miss_rate = 0.074, Pending_hits = 8, Reservation_fails = 0
L2_cache_bank[1]: Access = 715, Miss = 55, Miss_rate = 0.077, Pending_hits = 8, Reservation_fails = 0
L2_cache_bank[2]: Access = 687, Miss = 58, Miss_rate = 0.084, Pending_hits = 4, Reservation_fails = 0
L2_cache_bank[3]: Access = 686, Miss = 56, Miss_rate = 0.082, Pending_hits = 4, Reservation_fails = 0
L2_cache_bank[4]: Access = 695, Miss = 62, Miss_rate = 0.089, Pending_hits = 4, Reservation_fails = 0
L2_cache_bank[5]: Access = 725, Miss = 59, Miss_rate = 0.081, Pending_hits = 8, Reservation_fails = 0
L2_cache_bank[6]: Access = 722, Miss = 57, Miss_rate = 0.079, Pending_hits = 8, Reservation_fails = 0
L2_cache_bank[7]: Access = 735, Miss = 66, Miss_rate = 0.090, Pending_hits = 8, Reservation_fails = 0
L2_cache_bank[8]: Access = 693, Miss = 51, Miss_rate = 0.074, Pending_hits = 8, Reservation_fails = 0
L2_cache_bank[9]: Access = 710, Miss = 59, Miss_rate = 0.083, Pending_hits = 8, Reservation_fails = 0
L2_cache_bank[10]: Access = 710, Miss = 59, Miss_rate = 0.083, Pending_hits = 8, Reservation_fails = 0
L2_cache_bank[11]: Access = 676, Miss = 58, Miss_rate = 0.086, Pending_hits = 4, Reservation_fails = 0
L2_cache_bank[12]: Access = 655, Miss = 49, Miss_rate = 0.075, Pending_hits = 4, Reservation_fails = 0
L2_cache_bank[13]: Access = 661, Miss = 51, Miss_rate = 0.077, Pending_hits = 4, Reservation_fails = 0
L2_cache_bank[14]: Access = 664, Miss = 54, Miss_rate = 0.081, Pending_hits = 4, Reservation_fails = 0
L2_cache_bank[15]: Access = 675, Miss = 61, Miss_rate = 0.090, Pending_hits = 4, Reservation_fails = 0
L2_cache_bank[16]: Access = 661, Miss = 41, Miss_rate = 0.062, Pending_hits = 4, Reservation_fails = 0
L2_cache_bank[17]: Access = 613, Miss = 39, Miss_rate = 0.064, Pending_hits = 0, Reservation_fails = 0
L2_cache_bank[18]: Access = 635, Miss = 54, Miss_rate = 0.085, Pending_hits = 0, Reservation_fails = 0
L2_cache_bank[19]: Access = 683, Miss = 41, Miss_rate = 0.060, Pending_hits = 4, Reservation_fails = 0
L2_cache_bank[20]: Access = 691, Miss = 45, Miss_rate = 0.065, Pending_hits = 8, Reservation_fails = 0
L2_cache_bank[21]: Access = 639, Miss = 36, Miss_rate = 0.056, Pending_hits = 4, Reservation_fails = 0
L2_cache_bank[22]: Access = 692, Miss = 46, Miss_rate = 0.066, Pending_hits = 8, Reservation_fails = 0
L2_cache_bank[23]: Access = 694, Miss = 49, Miss_rate = 0.071, Pending_hits = 8, Reservation_fails = 0
L2_cache_bank[24]: Access = 604, Miss = 35, Miss_rate = 0.058, Pending_hits = 0, Reservation_fails = 0
L2_cache_bank[25]: Access = 618, Miss = 41, Miss_rate = 0.066, Pending_hits = 0, Reservation_fails = 0
L2_cache_bank[26]: Access = 615, Miss = 43, Miss_rate = 0.070, Pending_hits = 0, Reservation_fails = 0
L2_cache_bank[27]: Access = 644, Miss = 39, Miss_rate = 0.061, Pending_hits = 0, Reservation_fails = 0
L2_cache_bank[28]: Access = 615, Miss = 41, Miss_rate = 0.067, Pending_hits = 0, Reservation_fails = 0
L2_cache_bank[29]: Access = 648, Miss = 41, Miss_rate = 0.063, Pending_hits = 4, Reservation_fails = 0
L2_cache_bank[30]: Access = 650, Miss = 40, Miss_rate = 0.062, Pending_hits = 4, Reservation_fails = 0
L2_cache_bank[31]: Access = 652, Miss = 41, Miss_rate = 0.063, Pending_hits = 4, Reservation_fails = 0
L2_total_cache_accesses = 21477
L2_total_cache_misses = 1580
L2_total_cache_miss_rate = 0.0736
L2_total_cache_pending_hits = 144
L2_total_cache_reservation_fails = 0
L2_total_cache_breakdown:
	L2_cache_stats_breakdown[GLOBAL_ACC_R][HIT] = 16814
	L2_cache_stats_breakdown[GLOBAL_ACC_R][HIT_RESERVED] = 0
	L2_cache_stats_breakdown[GLOBAL_ACC_R][MISS] = 731
	L2_cache_stats_breakdown[GLOBAL_ACC_R][RESERVATION_FAIL] = 0
	L2_cache_stats_breakdown[GLOBAL_ACC_R][SECTOR_MISS] = 509
	L2_cache_stats_breakdown[GLOBAL_ACC_R][MSHR_HIT] = 0
	L2_cache_stats_breakdown[LOCAL_ACC_R][HIT] = 0
	L2_cache_stats_breakdown[LOCAL_ACC_R][HIT_RESERVED] = 0
	L2_cache_stats_breakdown[LOCAL_ACC_R][MISS] = 0
	L2_cache_stats_breakdown[LOCAL_ACC_R][RESERVATION_FAIL] = 0
	L2_cache_stats_breakdown[LOCAL_ACC_R][SECTOR_MISS] = 0
	L2_cache_stats_breakdown[LOCAL_ACC_R][MSHR_HIT] = 0
	L2_cache_stats_breakdown[CONST_ACC_R][HIT] = 0
	L2_cache_stats_breakdown[CONST_ACC_R][HIT_RESERVED] = 0
	L2_cache_stats_breakdown[CONST_ACC_R][MISS] = 0
	L2_cache_stats_breakdown[CONST_ACC_R][RESERVATION_FAIL] = 0
	L2_cache_stats_breakdown[CONST_ACC_R][SECTOR_MISS] = 0
	L2_cache_stats_breakdown[CONST_ACC_R][MSHR_HIT] = 0
	L2_cache_stats_breakdown[TEXTURE_ACC_R][HIT] = 0
	L2_cache_stats_breakdown[TEXTURE_ACC_R][HIT_RESERVED] = 0
	L2_cache_stats_breakdown[TEXTURE_ACC_R][MISS] = 0
	L2_cache_stats_breakdown[TEXTURE_ACC_R][RESERVATION_FAIL] = 0
	L2_cache_stats_breakdown[TEXTURE_ACC_R][SECTOR_MISS] = 0
	L2_cache_stats_breakdown[TEXTURE_ACC_R][MSHR_HIT] = 0
	L2_cache_stats_breakdown[GLOBAL_ACC_W][HIT] = 1787
	L2_cache_stats_breakdown[GLOBAL_ACC_W][HIT_RESERVED] = 0
	L2_cache_stats_breakdown[GLOBAL_ACC_W][MISS] = 37
	L2_cache_stats_breakdown[GLOBAL_ACC_W][RESERVATION_FAIL] = 0
	L2_cache_stats_breakdown[GLOBAL_ACC_W][SECTOR_MISS] = 159
	L2_cache_stats_breakdown[GLOBAL_ACC_W][MSHR_HIT] = 0
	L2_cache_stats_breakdown[LOCAL_ACC_W][HIT] = 0
	L2_cache_stats_breakdown[LOCAL_ACC_W][HIT_RESERVED] = 0
	L2_cache_stats_breakdown[LOCAL_ACC_W][MISS] = 0
	L2_cache_stats_breakdown[LOCAL_ACC_W][RESERVATION_FAIL] = 0
	L2_cache_stats_breakdown[LOCAL_ACC_W][SECTOR_MISS] = 0
	L2_cache_stats_breakdown[LOCAL_ACC_W][MSHR_HIT] = 0
	L2_cache_stats_breakdown[L1_WRBK_ACC][HIT] = 0
	L2_cache_stats_breakdown[L1_WRBK_ACC][HIT_RESERVED] = 0
	L2_cache_stats_breakdown[L1_WRBK_ACC][MISS] = 0
	L2_cache_stats_breakdown[L1_WRBK_ACC][RESERVATION_FAIL] = 0
	L2_cache_stats_breakdown[L1_WRBK_ACC][SECTOR_MISS] = 0
	L2_cache_stats_breakdown[L1_WRBK_ACC][MSHR_HIT] = 0
	L2_cache_stats_breakdown[L2_WRBK_ACC][HIT] = 0
	L2_cache_stats_breakdown[L2_WRBK_ACC][HIT_RESERVED] = 0
	L2_cache_stats_breakdown[L2_WRBK_ACC][MISS] = 0
	L2_cache_stats_breakdown[L2_WRBK_ACC][RESERVATION_FAIL] = 0
	L2_cache_stats_breakdown[L2_WRBK_ACC][SECTOR_MISS] = 0
	L2_cache_stats_breakdown[L2_WRBK_ACC][MSHR_HIT] = 0
	L2_cache_stats_breakdown[INST_ACC_R][HIT] = 1152
	L2_cache_stats_breakdown[INST_ACC_R][HIT_RESERVED] = 144
	L2_cache_stats_breakdown[INST_ACC_R][MISS] = 36
	L2_cache_stats_breakdown[INST_ACC_R][RESERVATION_FAIL] = 0
	L2_cache_stats_breakdown[INST_ACC_R][SECTOR_MISS] = 108
	L2_cache_stats_breakdown[INST_ACC_R][MSHR_HIT] = 144
	L2_cache_stats_breakdown[L1_WR_ALLOC_R][HIT] = 0
	L2_cache_stats_breakdown[L1_WR_ALLOC_R][HIT_RESERVED] = 0
	L2_cache_stats_breakdown[L1_WR_ALLOC_R][MISS] = 0
	L2_cache_stats_breakdown[L1_WR_ALLOC_R][RESERVATION_FAIL] = 0
	L2_cache_stats_breakdown[L1_WR_ALLOC_R][SECTOR_MISS] = 0
	L2_cache_stats_breakdown[L1_WR_ALLOC_R][MSHR_HIT] = 0
	L2_cache_stats_breakdown[L2_WR_ALLOC_R][HIT] = 0
	L2_cache_stats_breakdown[L2_WR_ALLOC_R][HIT_RESERVED] = 0
	L2_cache_stats_breakdown[L2_WR_ALLOC_R][MISS] = 0
	L2_cache_stats_breakdown[L2_WR_ALLOC_R][RESERVATION_FAIL] = 0
	L2_cache_stats_breakdown[L2_WR_ALLOC_R][SECTOR_MISS] = 0
	L2_cache_stats_breakdown[L2_WR_ALLOC_R][MSHR_HIT] = 0
	L2_cache_stats_breakdown[GLOBAL_ACC_R][TOTAL_ACCESS] = 18054
	L2_cache_stats_breakdown[GLOBAL_ACC_W][TOTAL_ACCESS] = 1983
	L2_cache_stats_breakdown[INST_ACC_R][TOTAL_ACCESS] = 1584
L2_total_cache_reservation_fail_breakdown:
L2_cache_data_port_util = 0.008
L2_cache_fill_port_util = 0.001

icnt_total_pkts_mem_to_simt=21477
icnt_total_pkts_simt_to_mem=20397
LD_mem_lat_dist  0 0 0 0 0 0 0 0 0 0 0 0 0 0 0 0 0 0 0 0 0 0 0 0 0 0 0
ST_mem_lat_dist  0 0 0 0 0 0 0 0 0 0 0 0 0 0 0 0 0 0 0 0 0 0 0 0 0 0 0
----------------------------Interconnect-DETAILS--------------------------------
Req_Network_injected_packets_num = 20397
Req_Network_cycles = 72714
Req_Network_injected_packets_per_cycle =       0.2805 
Req_Network_conflicts_per_cycle =       0.0010
Req_Network_conflicts_per_cycle_util =       0.0061
Req_Bank_Level_Parallism =       1.7655
Req_Network_in_buffer_full_per_cycle =       0.0000
Req_Network_in_buffer_avg_util =       0.0002
Req_Network_out_buffer_full_per_cycle =       0.0000
Req_Network_out_buffer_avg_util =       0.0088

Reply_Network_injected_packets_num = 21477
Reply_Network_cycles = 72714
Reply_Network_injected_packets_per_cycle =        0.2954
Reply_Network_conflicts_per_cycle =        0.4461
Reply_Network_conflicts_per_cycle_util =       2.5764
Reply_Bank_Level_Parallism =       1.7059
Reply_Network_in_buffer_full_per_cycle =       0.0000
Reply_Network_in_buffer_avg_util =       0.0208
Reply_Network_out_buffer_full_per_cycle =       0.0000
Reply_Network_out_buffer_avg_util =       0.0087
----------------------------END-of-Interconnect-DETAILS-------------------------


gpgpu_simulation_time = 0 days, 0 hrs, 0 min, 23 sec (23 sec)
gpgpu_simulation_rate = 33650 (inst/sec)
gpgpu_simulation_rate = 3161 (cycle/sec)
gpgpu_silicon_slowdown = 602657x
launching memcpy command : MemcpyHtoD,0x00007febe3707000,4096
launching memcpy command : MemcpyHtoD,0x00007febe3708400,32768
Processing kernel ../../../../hw_run/rodinia_2.0-ft/11.0/streamcluster-rodinia-2.0-ft/3_6_16_1024_1024_100_none_output_txt_1___data_result_3_6_16_1024_1024_100_none_1_txt/traces/kernel-6.traceg
-kernel name = _Z12pgain_kerneliilP5PointiPfS1_PiPb
-kernel id = 6
-grid dim = (2,1,1)
-block dim = (512,1,1)
-shmem = 64
-nregs = 32
-binary version = 70
-cuda stream id = 0
-shmem base_addr = 0x00007fec18000000
-local mem base_addr = 0x00007fec1a000000
-nvbit version = 1.4
-accelsim tracer version = 3
launching kernel command : ../../../../hw_run/rodinia_2.0-ft/11.0/streamcluster-rodinia-2.0-ft/3_6_16_1024_1024_100_none_output_txt_1___data_result_3_6_16_1024_1024_100_none_1_txt/traces/kernel-6.traceg
GPGPU-Sim uArch: Shader 10 bind to kernel 6 '_Z12pgain_kerneliilP5PointiPfS1_PiPb'
thread block = 0,0,0
GPGPU-Sim uArch: Shader 11 bind to kernel 6 '_Z12pgain_kerneliilP5PointiPfS1_PiPb'
thread block = 1,0,0
