

        *** GPGPU-Sim Simulator Version 4.2.0  [build gpgpu-sim_git-commit-fc80690a07466c1876745320413ad46fcb9c3275_modified_18.0] ***


GPGPU-Sim: Configuration options:

-save_embedded_ptx                      0 # saves ptx files embedded in binary as <n>.ptx
-keep                                   0 # keep intermediate files created by GPGPU-Sim when interfacing with external programs
-gpgpu_ptx_save_converted_ptxplus                    0 # Saved converted ptxplus to a file
-gpgpu_occupancy_sm_number                   75 # The SM number to pass to ptxas when getting register usage for computing GPU occupancy. This parameter is required in the config.
-ptx_opcode_latency_int      4,13,4,5,145,32 # Opcode latencies for integers <ADD,MAX,MUL,MAD,DIV,SHFL>Default 1,1,19,25,145,32
-ptx_opcode_latency_fp          4,13,4,5,39 # Opcode latencies for single precision floating points <ADD,MAX,MUL,MAD,DIV>Default 1,1,1,1,30
-ptx_opcode_latency_dp         8,19,8,8,330 # Opcode latencies for double precision floating points <ADD,MAX,MUL,MAD,DIV>Default 8,8,8,8,335
-ptx_opcode_latency_sfu                  100 # Opcode latencies for SFU instructionsDefault 8
-ptx_opcode_latency_tesnor                   64 # Opcode latencies for Tensor instructionsDefault 64
-ptx_opcode_initiation_int          2,2,2,2,8,4 # Opcode initiation intervals for integers <ADD,MAX,MUL,MAD,DIV,SHFL>Default 1,1,4,4,32,4
-ptx_opcode_initiation_fp            2,2,2,2,4 # Opcode initiation intervals for single precision floating points <ADD,MAX,MUL,MAD,DIV>Default 1,1,1,1,5
-ptx_opcode_initiation_dp          4,4,4,4,130 # Opcode initiation intervals for double precision floating points <ADD,MAX,MUL,MAD,DIV>Default 8,8,8,8,130
-ptx_opcode_initiation_sfu                    8 # Opcode initiation intervals for sfu instructionsDefault 8
-ptx_opcode_initiation_tensor                   64 # Opcode initiation intervals for tensor instructionsDefault 64
-cdp_latency         7200,8000,100,12000,1600 # CDP API latency <cudaStreamCreateWithFlags, cudaGetParameterBufferV2_init_perWarp, cudaGetParameterBufferV2_perKernel, cudaLaunchDeviceV2_init_perWarp, cudaLaunchDevicV2_perKernel>Default 7200,8000,100,12000,1600
-network_mode                           2 # Interconnection network mode
-inter_config_file                   mesh # Interconnection network config file
-icnt_in_buffer_limit                  512 # in_buffer_limit
-icnt_out_buffer_limit                  512 # out_buffer_limit
-icnt_subnets                           2 # subnets
-icnt_arbiter_algo                      1 # arbiter_algo
-icnt_verbose                           0 # inct_verbose
-icnt_grant_cycles                      1 # grant_cycles
-gpgpu_ptx_use_cuobjdump                    1 # Use cuobjdump to extract ptx and sass from binaries
-gpgpu_experimental_lib_support                    0 # Try to extract code from cuda libraries [Broken because of unknown cudaGetExportTable]
-checkpoint_option                      0 #  checkpointing flag (0 = no checkpoint)
-checkpoint_kernel                      1 #  checkpointing during execution of which kernel (1- 1st kernel)
-checkpoint_CTA                         0 #  checkpointing after # of CTA (< less than total CTA)
-resume_option                          0 #  resume flag (0 = no resume)
-resume_kernel                          0 #  Resume from which kernel (1= 1st kernel)
-resume_CTA                             0 #  resume from which CTA 
-checkpoint_CTA_t                       0 #  resume from which CTA 
-checkpoint_insn_Y                      0 #  resume from which CTA 
-gpgpu_ptx_convert_to_ptxplus                    0 # Convert SASS (native ISA) to ptxplus and run ptxplus
-gpgpu_ptx_force_max_capability                   75 # Force maximum compute capability
-gpgpu_ptx_inst_debug_to_file                    0 # Dump executed instructions' debug information to file
-gpgpu_ptx_inst_debug_file       inst_debug.txt # Executed instructions' debug output file
-gpgpu_ptx_inst_debug_thread_uid                    1 # Thread UID for executed instructions' debug output
-gpgpu_simd_model                       1 # 1 = post-dominator
-gpgpu_shader_core_pipeline              1024:32 # shader core pipeline config, i.e., {<nthread>:<warpsize>}
-gpgpu_tex_cache:l1  N:4:128:256,L:R:m:N:L,T:512:8,128:2 # per-shader L1 texture cache  (READ-ONLY) config  {<nsets>:<bsize>:<assoc>,<rep>:<wr>:<alloc>:<wr_alloc>,<mshr>:<N>:<merge>,<mq>:<rf>}
-gpgpu_const_cache:l1 N:128:64:8,L:R:f:N:L,S:2:64,4 # per-shader L1 constant memory cache  (READ-ONLY) config  {<nsets>:<bsize>:<assoc>,<rep>:<wr>:<alloc>:<wr_alloc>,<mshr>:<N>:<merge>,<mq>} 
-gpgpu_cache:il1     N:64:128:16,L:R:f:N:L,S:2:48,4 # shader L1 instruction cache config  {<nsets>:<bsize>:<assoc>,<rep>:<wr>:<alloc>:<wr_alloc>,<mshr>:<N>:<merge>,<mq>} 
-gpgpu_cache:dl1     S:1:128:512,L:L:s:N:L,A:256:8,16:0,32 # per-shader L1 data cache config  {<nsets>:<bsize>:<assoc>,<rep>:<wr>:<alloc>:<wr_alloc>,<mshr>:<N>:<merge>,<mq> | none}
-gpgpu_l1_banks                         4 # The number of L1 cache banks
-gpgpu_l1_banks_byte_interleaving                   32 # l1 banks byte interleaving granularity
-gpgpu_l1_banks_hashing_function                    0 # l1 banks hashing function
-gpgpu_l1_latency                      20 # L1 Hit Latency
-gpgpu_smem_latency                    20 # smem Latency
-gpgpu_cache:dl1PrefL1                 none # per-shader L1 data cache config  {<nsets>:<bsize>:<assoc>,<rep>:<wr>:<alloc>:<wr_alloc>,<mshr>:<N>:<merge>,<mq> | none}
-gpgpu_cache:dl1PrefShared                 none # per-shader L1 data cache config  {<nsets>:<bsize>:<assoc>,<rep>:<wr>:<alloc>:<wr_alloc>,<mshr>:<N>:<merge>,<mq> | none}
-gpgpu_gmem_skip_L1D                    0 # global memory access skip L1D cache (implements -Xptxas -dlcm=cg, default=no skip)
-gpgpu_perfect_mem                      0 # enable perfect memory mode (no cache miss)
-gpgpu_perfect_mem_data                    0 # no wait for data on scoreboard
-gpgpu_write_sched_order                    0 # write order in which warps were executed in file
-gpgpu_follow_defined_sched_order                    0 # follow sched order written in file
-gpgpu_print_stall_data                    0 # Print verbose stall data per cycle
-gpgpu_print_cout_statements                    0 # Print verbose stall data per cycle
-gpgpu_sched_all_warps                    0 # All schedulers see all warps
-gpgpu_reply_buffer                     0 # Replay instructions which could not be executed later
-gpgpu_reply_buffer_seperate_mem_comp                    0 # Replay instructions which could not be executed later
-n_regfile_gating_group                    4 # group of lanes that should be read/written together)
-gpgpu_clock_gated_reg_file                    0 # enable clock gated reg file for power calculations
-gpgpu_clock_gated_lanes                    1 # enable clock gated lanes for power calculations
-gpgpu_shader_registers                65536 # Number of registers per shader core. Limits number of concurrent CTAs. (default 8192)
-gpgpu_registers_per_block                65536 # Maximum number of registers per CTA. (default 8192)
-gpgpu_ignore_resources_limitation                    0 # gpgpu_ignore_resources_limitation (default 0)
-gpgpu_shader_cta                      32 # Maximum number of concurrent CTAs in shader (default 8)
-gpgpu_num_cta_barriers                   16 # Maximum number of named barriers per CTA (default 16)
-gpgpu_n_clusters                      34 # number of processing clusters
-gpgpu_n_cores_per_cluster                    1 # number of simd cores per cluster
-gpgpu_n_cluster_ejection_buffer_size                   32 # number of packets in ejection buffer
-gpgpu_n_ldst_response_buffer_size                    2 # number of response packets in ld/st unit ejection buffer
-gpgpu_shmem_per_block                65536 # Size of shared memory per thread block or CTA (default 48kB)
-gpgpu_shmem_size                   65536 # Size of shared memory per shader core (default 16kB)
-gpgpu_adaptive_cache_config                    0 # adaptive_cache_config
-gpgpu_shmem_sizeDefault                65536 # Size of shared memory per shader core (default 16kB)
-gpgpu_shmem_size_PrefL1                16384 # Size of shared memory per shader core (default 16kB)
-gpgpu_shmem_size_PrefShared                16384 # Size of shared memory per shader core (default 16kB)
-gpgpu_shmem_num_banks                   32 # Number of banks in the shared memory in each shader core (default 16)
-gpgpu_shmem_limited_broadcast                    0 # Limit shared memory to do one broadcast per cycle (default on)
-gpgpu_shmem_warp_parts                    1 # Number of portions a warp is divided into for shared memory bank conflict check 
-gpgpu_mem_unit_ports                    1 # The number of memory transactions allowed per core cycle
-gpgpu_shmem_warp_parts                    1 # Number of portions a warp is divided into for shared memory bank conflict check 
-gpgpu_warpdistro_shader                   -1 # Specify which shader core to collect the warp size distribution from
-gpgpu_warp_issue_shader                    0 # Specify which shader core to collect the warp issue distribution from
-gpgpu_local_mem_map                    1 # Mapping from local memory space address to simulated GPU physical address space (default = enabled)
-gpgpu_num_reg_banks                   16 # Number of register banks (default = 8)
-gpgpu_reg_bank_use_warp_id                    0 # Use warp ID in mapping registers to banks (default = off)
-gpgpu_sub_core_model                    1 # Sub Core Volta/Pascal model (default = off)
-gpgpu_enable_specialized_operand_collector                    0 # enable_specialized_operand_collector
-gpgpu_operand_collector_num_units_sp                    4 # number of collector units (default = 4)
-gpgpu_operand_collector_num_units_dp                    0 # number of collector units (default = 0)
-gpgpu_operand_collector_num_units_sfu                    4 # number of collector units (default = 4)
-gpgpu_operand_collector_num_units_int                    0 # number of collector units (default = 0)
-gpgpu_operand_collector_num_units_tensor_core                    4 # number of collector units (default = 4)
-gpgpu_operand_collector_num_units_mem                    2 # number of collector units (default = 2)
-gpgpu_operand_collector_num_units_gen                    8 # number of collector units (default = 0)
-gpgpu_operand_collector_num_in_ports_sp                    1 # number of collector unit in ports (default = 1)
-gpgpu_operand_collector_num_in_ports_dp                    0 # number of collector unit in ports (default = 0)
-gpgpu_operand_collector_num_in_ports_sfu                    1 # number of collector unit in ports (default = 1)
-gpgpu_operand_collector_num_in_ports_int                    0 # number of collector unit in ports (default = 0)
-gpgpu_operand_collector_num_in_ports_tensor_core                    1 # number of collector unit in ports (default = 1)
-gpgpu_operand_collector_num_in_ports_mem                    1 # number of collector unit in ports (default = 1)
-gpgpu_operand_collector_num_in_ports_gen                    8 # number of collector unit in ports (default = 0)
-gpgpu_operand_collector_num_out_ports_sp                    1 # number of collector unit in ports (default = 1)
-gpgpu_operand_collector_num_out_ports_dp                    0 # number of collector unit in ports (default = 0)
-gpgpu_operand_collector_num_out_ports_sfu                    1 # number of collector unit in ports (default = 1)
-gpgpu_operand_collector_num_out_ports_int                    0 # number of collector unit in ports (default = 0)
-gpgpu_operand_collector_num_out_ports_tensor_core                    1 # number of collector unit in ports (default = 1)
-gpgpu_operand_collector_num_out_ports_mem                    1 # number of collector unit in ports (default = 1)
-gpgpu_operand_collector_num_out_ports_gen                    8 # number of collector unit in ports (default = 0)
-gpgpu_coalesce_arch                   75 # Coalescing arch (GT200 = 13, Fermi = 20)
-gpgpu_num_sched_per_core                    4 # Number of warp schedulers per core
-gpgpu_max_insn_issue_per_warp                    1 # Max number of instructions that can be issued per warp in one cycle by scheduler (either 1 or 2)
-gpgpu_dual_issue_diff_exec_units                    1 # should dual issue use two different execution unit resources (Default = 1)
-gpgpu_simt_core_sim_order                    1 # Select the simulation order of cores in a cluster (0=Fix, 1=Round-Robin)
-gpgpu_pipeline_widths 4,0,4,4,4,4,0,4,4,4,8,4,4 # Pipeline widths ID_OC_SP,ID_OC_DP,ID_OC_INT,ID_OC_SFU,ID_OC_MEM,OC_EX_SP,OC_EX_DP,OC_EX_INT,OC_EX_SFU,OC_EX_MEM,EX_WB,ID_OC_TENSOR_CORE,OC_EX_TENSOR_CORE
-gpgpu_tensor_core_avail                    1 # Tensor Core Available (default=0)
-gpgpu_num_sp_units                     4 # Number of SP units (default=1)
-gpgpu_num_dp_units                     0 # Number of DP units (default=0)
-gpgpu_num_int_units                    4 # Number of INT units (default=0)
-gpgpu_num_sfu_units                    4 # Number of SF units (default=1)
-gpgpu_num_tensor_core_units                    4 # Number of tensor_core units (default=1)
-gpgpu_num_mem_units                    1 # Number if ldst units (default=1) WARNING: not hooked up to anything
-gpgpu_scheduler                      lrr # Scheduler configuration: < lrr | gto | two_level_active > If two_level_active:<num_active_warps>:<inner_prioritization>:<outer_prioritization>For complete list of prioritization values see shader.h enum scheduler_prioritization_typeDefault: gto
-gpgpu_concurrent_kernel_sm                    0 # Support concurrent kernels on a SM (default = disabled)
-gpgpu_perfect_inst_const_cache                    0 # perfect inst and const cache mode, so all inst and const hits in the cache(default = disabled)
-gpgpu_perfect_control                    0 # perfect control so that all control hazardsare resolved immediately
-gpgpu_pending_write_ignore                    0 # Ignore Pending Writes
-gpgpu_ignore_synchronization                    0 # Ignores synchronization (CAREFUL: may break execution)
-gpgpu_inst_fetch_throughput                    4 # the number of fetched intruction per warp each cycle
-gpgpu_reg_file_port_throughput                    2 # the number ports of the register file
-specialized_unit_1         1,4,4,4,4,BRA # specialized unit config {<enabled>,<num_units>:<latency>:<initiation>,<ID_OC_SPEC>:<OC_EX_SPEC>,<NAME>}
-specialized_unit_2       1,1,200,4,4,TEX # specialized unit config {<enabled>,<num_units>:<latency>:<initiation>,<ID_OC_SPEC>:<OC_EX_SPEC>,<NAME>}
-specialized_unit_3      1,4,8,4,4,TENSOR # specialized unit config {<enabled>,<num_units>:<latency>:<initiation>,<ID_OC_SPEC>:<OC_EX_SPEC>,<NAME>}
-specialized_unit_4         1,4,4,4,4,UDP # specialized unit config {<enabled>,<num_units>:<latency>:<initiation>,<ID_OC_SPEC>:<OC_EX_SPEC>,<NAME>}
-specialized_unit_5         0,4,4,4,4,BRA # specialized unit config {<enabled>,<num_units>:<latency>:<initiation>,<ID_OC_SPEC>:<OC_EX_SPEC>,<NAME>}
-specialized_unit_6         0,4,4,4,4,BRA # specialized unit config {<enabled>,<num_units>:<latency>:<initiation>,<ID_OC_SPEC>:<OC_EX_SPEC>,<NAME>}
-specialized_unit_7         0,4,4,4,4,BRA # specialized unit config {<enabled>,<num_units>:<latency>:<initiation>,<ID_OC_SPEC>:<OC_EX_SPEC>,<NAME>}
-specialized_unit_8         0,4,4,4,4,BRA # specialized unit config {<enabled>,<num_units>:<latency>:<initiation>,<ID_OC_SPEC>:<OC_EX_SPEC>,<NAME>}
-gpgpu_perf_sim_memcpy                    1 # Fill the L2 cache on memcpy
-gpgpu_simple_dram_model                    0 # simple_dram_model with fixed latency and BW
-gpgpu_dram_scheduler                    1 # 0 = fifo, 1 = FR-FCFS (defaul)
-gpgpu_dram_partition_queues          64:64:64:64 # i2$:$2d:d2$:$2i
-l2_ideal                               0 # Use a ideal L2 cache that always hit
-gpgpu_cache:dl2     S:64:128:16,L:B:m:L:P,A:192:4,32:0,32 # unified banked L2 data cache config  {<nsets>:<bsize>:<assoc>,<rep>:<wr>:<alloc>:<wr_alloc>,<mshr>:<N>:<merge>,<mq>}
-gpgpu_cache:dl2_texture_only                    0 # L2 cache used for texture only
-gpgpu_n_mem                           16 # number of memory modules (e.g. memory controllers) in gpu
-gpgpu_n_sub_partition_per_mchannel                    2 # number of memory subpartition in each memory module
-gpgpu_n_mem_per_ctrlr                    1 # number of memory chips per memory controller
-gpgpu_memlatency_stat                   14 # track and display latency statistics 0x2 enables MC, 0x4 enables queue logs
-gpgpu_frfcfs_dram_sched_queue_size                   64 # 0 = unlimited (default); # entries per chip
-gpgpu_dram_return_queue_size                  192 # 0 = unlimited (default); # entries per chip
-gpgpu_dram_buswidth                    2 # default = 4 bytes (8 bytes per cycle at DDR)
-gpgpu_dram_burst_length                   16 # Burst length of each DRAM request (default = 4 data bus cycle)
-dram_data_command_freq_ratio                    4 # Frequency ratio between DRAM data bus and command bus (default = 2 times, i.e. DDR)
-gpgpu_dram_timing_opt nbk=16:CCD=4:RRD=10:RCD=20:RAS=50:RP=20:RC=62: CL=20:WL=8:CDLR=9:WR=20:nbkgrp=4:CCDL=4:RTPL=4 # DRAM timing parameters = {nbk:tCCD:tRRD:tRCD:tRAS:tRP:tRC:CL:WL:tCDLR:tWR:nbkgrp:tCCDL:tRTPL}
-gpgpu_l2_rop_latency                  160 # ROP queue latency (default 85)
-dram_latency                         100 # DRAM latency (default 30)
-dram_dual_bus_interface                    0 # dual_bus_interface (default = 0) 
-dram_bnk_indexing_policy                    0 # dram_bnk_indexing_policy (0 = normal indexing, 1 = Xoring with the higher bits) (Default = 0)
-dram_bnkgrp_indexing_policy                    1 # dram_bnkgrp_indexing_policy (0 = take higher bits, 1 = take lower bits) (Default = 0)
-dram_seperate_write_queue_enable                    0 # Seperate_Write_Queue_Enable
-dram_write_queue_size             32:28:16 # Write_Queue_Size
-dram_elimnate_rw_turnaround                    0 # elimnate_rw_turnaround i.e set tWTR and tRTW = 0
-icnt_flit_size                        40 # icnt_flit_size
-gpgpu_mem_addr_mapping dramid@8;00000000.00000000.00000000.00000000.0000RRRR.RRRRRRRR.RBBBCCCC.BCCSSSSS # mapping memory address to dram model {dramid@<start bit>;<memory address map>}
-gpgpu_mem_addr_test                    0 # run sweep test to check address mapping for aliased address
-gpgpu_mem_address_mask                    1 # 0 = old addressing mask, 1 = new addressing mask, 2 = new add. mask + flipped bank sel and chip sel bits
-gpgpu_memory_partition_indexing                    0 # 0 = no indexing, 1 = bitwise xoring, 2 = IPoly, 3 = custom indexing
-accelwattch_xml_file accelwattch_ptx_sim.xml # AccelWattch XML file
-power_simulation_enabled                    1 # Turn on power simulator (1=On, 0=Off)
-power_per_cycle_dump                    0 # Dump detailed power output each cycle
-hw_perf_file_name            hw_perf.csv # Hardware Performance Statistics file
-hw_perf_bench_name                       # Kernel Name in Hardware Performance Statistics file
-power_simulation_mode                    0 # Switch performance counter input for power simulation (0=Sim, 1=HW, 2=HW-Sim Hybrid)
-dvfs_enabled                           0 # Turn on DVFS for power model
-aggregate_power_stats                    0 # Accumulate power across all kernels
-accelwattch_hybrid_perfsim_L1_RH                    0 # Get L1 Read Hits for Accelwattch-Hybrid from Accel-Sim
-accelwattch_hybrid_perfsim_L1_RM                    0 # Get L1 Read Misses for Accelwattch-Hybrid from Accel-Sim
-accelwattch_hybrid_perfsim_L1_WH                    0 # Get L1 Write Hits for Accelwattch-Hybrid from Accel-Sim
-accelwattch_hybrid_perfsim_L1_WM                    0 # Get L1 Write Misses for Accelwattch-Hybrid from Accel-Sim
-accelwattch_hybrid_perfsim_L2_RH                    0 # Get L2 Read Hits for Accelwattch-Hybrid from Accel-Sim
-accelwattch_hybrid_perfsim_L2_RM                    0 # Get L2 Read Misses for Accelwattch-Hybrid from Accel-Sim
-accelwattch_hybrid_perfsim_L2_WH                    0 # Get L2 Write Hits for Accelwattch-Hybrid from Accel-Sim
-accelwattch_hybrid_perfsim_L2_WM                    0 # Get L2 Write Misses for Accelwattch-Hybrid from Accel-Sim
-accelwattch_hybrid_perfsim_CC_ACC                    0 # Get Constant Cache Acesses for Accelwattch-Hybrid from Accel-Sim
-accelwattch_hybrid_perfsim_SHARED_ACC                    0 # Get Shared Memory Acesses for Accelwattch-Hybrid from Accel-Sim
-accelwattch_hybrid_perfsim_DRAM_RD                    0 # Get DRAM Reads for Accelwattch-Hybrid from Accel-Sim
-accelwattch_hybrid_perfsim_DRAM_WR                    0 # Get DRAM Writes for Accelwattch-Hybrid from Accel-Sim
-accelwattch_hybrid_perfsim_NOC                    0 # Get Interconnect Acesses for Accelwattch-Hybrid from Accel-Sim
-accelwattch_hybrid_perfsim_PIPE_DUTY                    0 # Get Pipeline Duty Cycle Acesses for Accelwattch-Hybrid from Accel-Sim
-accelwattch_hybrid_perfsim_NUM_SM_IDLE                    0 # Get Number of Idle SMs for Accelwattch-Hybrid from Accel-Sim
-accelwattch_hybrid_perfsim_CYCLES                    0 # Get Executed Cycles for Accelwattch-Hybrid from Accel-Sim
-accelwattch_hybrid_perfsim_VOLTAGE                    0 # Get Chip Voltage for Accelwattch-Hybrid from Accel-Sim
-power_trace_enabled                    0 # produce a file for the power trace (1=On, 0=Off)
-power_trace_zlevel                     6 # Compression level of the power trace output log (0=no comp, 9=highest)
-steady_power_levels_enabled                    0 # produce a file for the steady power levels (1=On, 0=Off)
-steady_state_definition                  8:4 # allowed deviation:number of samples
-gpgpu_max_cycle                        0 # terminates gpu simulation early (0 = no limit)
-gpgpu_max_insn                         0 # terminates gpu simulation early (0 = no limit)
-gpgpu_max_cta                          0 # terminates gpu simulation early (0 = no limit)
-gpgpu_max_completed_cta                    0 # terminates gpu simulation early (0 = no limit)
-gpgpu_runtime_stat                   500 # display runtime statistics such as dram utilization {<freq>:<flag>}
-liveness_message_freq                    1 # Minimum number of seconds between simulation liveness messages (0 = always print)
-gpgpu_compute_capability_major                    7 # Major compute capability version number
-gpgpu_compute_capability_minor                    5 # Minor compute capability version number
-gpgpu_flush_l1_cache                    1 # Flush L1 cache at the end of each kernel call
-gpgpu_flush_l2_cache                    0 # Flush L2 cache at the end of each kernel call
-gpgpu_deadlock_detect                    1 # Stop the simulation at deadlock (1=on (default), 0=off)
-gpgpu_ptx_instruction_classification                    0 # if enabled will classify ptx instruction types per kernel (Max 255 kernels now)
-gpgpu_ptx_sim_mode                     0 # Select between Performance (default) or Functional simulation (1)
-gpgpu_clock_domains 1905.0:1905.0:1905.0:3500.0 # Clock Domain Frequencies in MhZ {<Core Clock>:<ICNT Clock>:<L2 Clock>:<DRAM Clock>}
-gpgpu_max_concurrent_kernel                    8 # maximum kernels that can run concurrently on GPU
-gpgpu_cflog_interval                    0 # Interval between each snapshot in control flow logger
-visualizer_enabled                     0 # Turn on visualizer output (1=On, 0=Off)
-visualizer_outputfile                 NULL # Specifies the output log file for visualizer
-visualizer_zlevel                      6 # Compression level of the visualizer output log (0=no comp, 9=highest)
-gpgpu_stack_size_limit                 1024 # GPU thread stack size
-gpgpu_heap_size_limit              8388608 # GPU malloc heap size 
-gpgpu_runtime_sync_depth_limit                    2 # GPU device runtime synchronize depth
-gpgpu_runtime_pending_launch_count_limit                 2048 # GPU device runtime pending launch count
-trace_enabled                          0 # Turn on traces
-trace_components                    none # comma seperated list of traces to enable. Complete list found in trace_streams.tup. Default none
-trace_sampling_core                    0 # The core which is printed using CORE_DPRINTF. Default 0
-trace_sampling_memory_partition                   -1 # The memory partition which is printed using MEMPART_DPRINTF. Default -1 (i.e. all)
-enable_ptx_file_line_stats                    1 # Turn on PTX source line statistic profiling. (1 = On)
-ptx_line_stats_filename gpgpu_inst_stats.txt # Output file for PTX source line statistics.
-gpgpu_kernel_launch_latency                 5000 # Kernel launch latency in cycles. Default: 0
-gpgpu_cdp_enabled                      0 # Turn on CDP
-gpgpu_TB_launch_latency                    0 # thread block launch latency in cycles. Default: 0
-trace               ../../../../hw_run/rodinia_2.0-ft/11.0/streamcluster-rodinia-2.0-ft/3_6_16_1024_1024_100_none_output_txt_1___data_result_3_6_16_1024_1024_100_none_1_txt/traces/kernelslist.g # traces kernel filetraces kernel file directory
-trace_opcode_latency_initiation_int                  4,2 # Opcode latencies and initiation for integers in trace driven mode <latency,initiation>
-trace_opcode_latency_initiation_sp                  4,2 # Opcode latencies and initiation for sp in trace driven mode <latency,initiation>
-trace_opcode_latency_initiation_dp                  8,4 # Opcode latencies and initiation for dp in trace driven mode <latency,initiation>
-trace_opcode_latency_initiation_sfu                 20,8 # Opcode latencies and initiation for sfu in trace driven mode <latency,initiation>
-trace_opcode_latency_initiation_tensor                  8,4 # Opcode latencies and initiation for tensor in trace driven mode <latency,initiation>
-trace_opcode_latency_initiation_spec_op_1                  4,4 # specialized unit config <latency,initiation>
-trace_opcode_latency_initiation_spec_op_2                200,4 # specialized unit config <latency,initiation>
-trace_opcode_latency_initiation_spec_op_3                  8,4 # specialized unit config <latency,initiation>
-trace_opcode_latency_initiation_spec_op_4                  4,2 # specialized unit config <latency,initiation>
-trace_opcode_latency_initiation_spec_op_5                  4,4 # specialized unit config <latency,initiation>
-trace_opcode_latency_initiation_spec_op_6                  4,4 # specialized unit config <latency,initiation>
-trace_opcode_latency_initiation_spec_op_7                  4,4 # specialized unit config <latency,initiation>
-trace_opcode_latency_initiation_spec_op_8                  4,4 # specialized unit config <latency,initiation>
DRAM Timing Options:
nbk                                    16 # number of banks
CCD                                     4 # column to column delay
RRD                                    10 # minimal delay between activation of rows in different banks
RCD                                    20 # row to column delay
RAS                                    50 # time needed to activate row
RP                                     20 # time needed to precharge (deactivate) row
RC                                     62 # row cycle time
CDLR                                    9 # switching from write to read (changes tWTR)
WR                                     20 # last data-in to row precharge
CL                                     20 # CAS latency
WL                                      8 # Write latency
nbkgrp                                  4 # number of bank groups
CCDL                                    4 # column to column delay between accesses to different bank groups
RTPL                                    4 # read to precharge delay between accesses to different bank groups
Total number of memory sub partition = 32
addr_dec_mask[CHIP]  = 0000000000000f00 	high:12 low:8
addr_dec_mask[BK]    = 0000000000070080 	high:19 low:7
addr_dec_mask[ROW]   = 00000000fff80000 	high:32 low:19
addr_dec_mask[COL]   = 000000000000f07f 	high:16 low:0
addr_dec_mask[BURST] = 000000000000001f 	high:5 low:0
sub_partition_id_mask = 0000000000000080
GPGPU-Sim uArch: clock freqs: 1905000000.000000:1905000000.000000:1905000000.000000:3500000000.000000
GPGPU-Sim uArch: clock periods: 0.00000000052493438320:0.00000000052493438320:0.00000000052493438320:0.00000000028571428571
*** Initializing Memory Statistics ***
GPGPU-Sim uArch: performance model initialization complete.
launching memcpy command : MemcpyHtoD,0x00007febe3708000,1024
launching memcpy command : MemcpyHtoD,0x00007febe3710400,65536
launching memcpy command : MemcpyHtoD,0x00007febe3707000,4096
launching memcpy command : MemcpyHtoD,0x00007febe3708400,32768
Processing kernel ../../../../hw_run/rodinia_2.0-ft/11.0/streamcluster-rodinia-2.0-ft/3_6_16_1024_1024_100_none_output_txt_1___data_result_3_6_16_1024_1024_100_none_1_txt/traces/kernel-1.traceg
-kernel name = _Z12pgain_kerneliilP5PointiPfS1_PiPb
-kernel id = 1
-grid dim = (2,1,1)
-block dim = (512,1,1)
-shmem = 64
-nregs = 32
-binary version = 70
-cuda stream id = 0
-shmem base_addr = 0x00007fec18000000
-local mem base_addr = 0x00007fec1a000000
-nvbit version = 1.4
-accelsim tracer version = 3
launching kernel command : ../../../../hw_run/rodinia_2.0-ft/11.0/streamcluster-rodinia-2.0-ft/3_6_16_1024_1024_100_none_output_txt_1___data_result_3_6_16_1024_1024_100_none_1_txt/traces/kernel-1.traceg
GPGPU-Sim uArch: Shader 0 bind to kernel 1 '_Z12pgain_kerneliilP5PointiPfS1_PiPb'
GPGPU-Sim uArch: CTA/core = 2, limited by: threads
thread block = 0,0,0
GPGPU-Sim uArch: Shader 1 bind to kernel 1 '_Z12pgain_kerneliilP5PointiPfS1_PiPb'
thread block = 1,0,0
Destroy streams for kernel 1: size 0
kernel_name = _Z12pgain_kerneliilP5PointiPfS1_PiPb 
kernel_launch_uid = 1 
gpu_sim_cycle = 18288
gpu_sim_insn = 154794
gpu_ipc =       8.4642
gpu_tot_sim_cycle = 18288
gpu_tot_stall_cycle = 8143
tot_cycles_exec_all_SM = 106292
cycles_passed = 18288
gpu_tot_sim_insn = 154794
gpu_tot_ipc =       8.4642
gpu_tot_issued_cta = 2
gpu_occupancy = 49.5209% 
gpu_tot_occupancy = 49.5209% 
max_total_param_size = 0
gpu_stall_dramfull = 0
gpu_stall_icnt2sh    = 0
partiton_level_parallism =       0.2554
partiton_level_parallism_total  =       0.2554
partiton_level_parallism_util =       1.8922
partiton_level_parallism_util_total  =       1.8922
L2_BW  =      16.2867 GB/Sec
L2_BW_total  =      16.2867 GB/Sec
gpu_total_sim_rate=25799

========= Core cache stats =========
L1I_cache:
	L1I_total_cache_accesses = 2682
	L1I_total_cache_misses = 769
	L1I_total_cache_miss_rate = 0.2867
	L1I_total_cache_pending_hits = 0
	L1I_total_cache_reservation_fails = 0
L1D_cache:
	L1D_cache_core[0]: Access = 2954, Miss = 2395, Miss_rate = 0.811, Pending_hits = 0, Reservation_fails = 2900
	L1D_cache_core[1]: Access = 2955, Miss = 2461, Miss_rate = 0.833, Pending_hits = 0, Reservation_fails = 2870
	L1D_cache_core[2]: Access = 0, Miss = 0, Miss_rate = -nan, Pending_hits = 0, Reservation_fails = 0
	L1D_cache_core[3]: Access = 0, Miss = 0, Miss_rate = -nan, Pending_hits = 0, Reservation_fails = 0
	L1D_cache_core[4]: Access = 0, Miss = 0, Miss_rate = -nan, Pending_hits = 0, Reservation_fails = 0
	L1D_cache_core[5]: Access = 0, Miss = 0, Miss_rate = -nan, Pending_hits = 0, Reservation_fails = 0
	L1D_cache_core[6]: Access = 0, Miss = 0, Miss_rate = -nan, Pending_hits = 0, Reservation_fails = 0
	L1D_cache_core[7]: Access = 0, Miss = 0, Miss_rate = -nan, Pending_hits = 0, Reservation_fails = 0
	L1D_cache_core[8]: Access = 0, Miss = 0, Miss_rate = -nan, Pending_hits = 0, Reservation_fails = 0
	L1D_cache_core[9]: Access = 0, Miss = 0, Miss_rate = -nan, Pending_hits = 0, Reservation_fails = 0
	L1D_cache_core[10]: Access = 0, Miss = 0, Miss_rate = -nan, Pending_hits = 0, Reservation_fails = 0
	L1D_cache_core[11]: Access = 0, Miss = 0, Miss_rate = -nan, Pending_hits = 0, Reservation_fails = 0
	L1D_cache_core[12]: Access = 0, Miss = 0, Miss_rate = -nan, Pending_hits = 0, Reservation_fails = 0
	L1D_cache_core[13]: Access = 0, Miss = 0, Miss_rate = -nan, Pending_hits = 0, Reservation_fails = 0
	L1D_cache_core[14]: Access = 0, Miss = 0, Miss_rate = -nan, Pending_hits = 0, Reservation_fails = 0
	L1D_cache_core[15]: Access = 0, Miss = 0, Miss_rate = -nan, Pending_hits = 0, Reservation_fails = 0
	L1D_cache_core[16]: Access = 0, Miss = 0, Miss_rate = -nan, Pending_hits = 0, Reservation_fails = 0
	L1D_cache_core[17]: Access = 0, Miss = 0, Miss_rate = -nan, Pending_hits = 0, Reservation_fails = 0
	L1D_cache_core[18]: Access = 0, Miss = 0, Miss_rate = -nan, Pending_hits = 0, Reservation_fails = 0
	L1D_cache_core[19]: Access = 0, Miss = 0, Miss_rate = -nan, Pending_hits = 0, Reservation_fails = 0
	L1D_cache_core[20]: Access = 0, Miss = 0, Miss_rate = -nan, Pending_hits = 0, Reservation_fails = 0
	L1D_cache_core[21]: Access = 0, Miss = 0, Miss_rate = -nan, Pending_hits = 0, Reservation_fails = 0
	L1D_cache_core[22]: Access = 0, Miss = 0, Miss_rate = -nan, Pending_hits = 0, Reservation_fails = 0
	L1D_cache_core[23]: Access = 0, Miss = 0, Miss_rate = -nan, Pending_hits = 0, Reservation_fails = 0
	L1D_cache_core[24]: Access = 0, Miss = 0, Miss_rate = -nan, Pending_hits = 0, Reservation_fails = 0
	L1D_cache_core[25]: Access = 0, Miss = 0, Miss_rate = -nan, Pending_hits = 0, Reservation_fails = 0
	L1D_cache_core[26]: Access = 0, Miss = 0, Miss_rate = -nan, Pending_hits = 0, Reservation_fails = 0
	L1D_cache_core[27]: Access = 0, Miss = 0, Miss_rate = -nan, Pending_hits = 0, Reservation_fails = 0
	L1D_cache_core[28]: Access = 0, Miss = 0, Miss_rate = -nan, Pending_hits = 0, Reservation_fails = 0
	L1D_cache_core[29]: Access = 0, Miss = 0, Miss_rate = -nan, Pending_hits = 0, Reservation_fails = 0
	L1D_cache_core[30]: Access = 0, Miss = 0, Miss_rate = -nan, Pending_hits = 0, Reservation_fails = 0
	L1D_cache_core[31]: Access = 0, Miss = 0, Miss_rate = -nan, Pending_hits = 0, Reservation_fails = 0
	L1D_cache_core[32]: Access = 0, Miss = 0, Miss_rate = -nan, Pending_hits = 0, Reservation_fails = 0
	L1D_cache_core[33]: Access = 0, Miss = 0, Miss_rate = -nan, Pending_hits = 0, Reservation_fails = 0
	L1D_total_cache_accesses = 5909
	L1D_total_cache_misses = 4856
	L1D_total_cache_miss_rate = 0.8218
	L1D_total_cache_pending_hits = 0
	L1D_total_cache_reservation_fails = 5770
	L1D_cache_data_port_util = 0.040
	L1D_cache_fill_port_util = 0.147
L1C_cache:
	L1C_total_cache_accesses = 0
	L1C_total_cache_misses = 0
	L1C_total_cache_pending_hits = 0
	L1C_total_cache_reservation_fails = 0
L1T_cache:
	L1T_total_cache_accesses = 0
	L1T_total_cache_misses = 0
	L1T_total_cache_pending_hits = 0
	L1T_total_cache_reservation_fails = 0

Total_core_cache_stats:
	Total_core_cache_stats_breakdown[GLOBAL_ACC_R][HIT] = 423
	Total_core_cache_stats_breakdown[GLOBAL_ACC_R][HIT_RESERVED] = 0
	Total_core_cache_stats_breakdown[GLOBAL_ACC_R][MISS] = 3856
	Total_core_cache_stats_breakdown[GLOBAL_ACC_R][RESERVATION_FAIL] = 4883
	Total_core_cache_stats_breakdown[GLOBAL_ACC_R][SECTOR_MISS] = 936
	Total_core_cache_stats_breakdown[GLOBAL_ACC_R][MSHR_HIT] = 888
	Total_core_cache_stats_breakdown[LOCAL_ACC_R][HIT] = 0
	Total_core_cache_stats_breakdown[LOCAL_ACC_R][HIT_RESERVED] = 0
	Total_core_cache_stats_breakdown[LOCAL_ACC_R][MISS] = 0
	Total_core_cache_stats_breakdown[LOCAL_ACC_R][RESERVATION_FAIL] = 0
	Total_core_cache_stats_breakdown[LOCAL_ACC_R][SECTOR_MISS] = 0
	Total_core_cache_stats_breakdown[LOCAL_ACC_R][MSHR_HIT] = 0
	Total_core_cache_stats_breakdown[CONST_ACC_R][HIT] = 0
	Total_core_cache_stats_breakdown[CONST_ACC_R][HIT_RESERVED] = 0
	Total_core_cache_stats_breakdown[CONST_ACC_R][MISS] = 0
	Total_core_cache_stats_breakdown[CONST_ACC_R][RESERVATION_FAIL] = 0
	Total_core_cache_stats_breakdown[CONST_ACC_R][SECTOR_MISS] = 0
	Total_core_cache_stats_breakdown[CONST_ACC_R][MSHR_HIT] = 0
	Total_core_cache_stats_breakdown[TEXTURE_ACC_R][HIT] = 0
	Total_core_cache_stats_breakdown[TEXTURE_ACC_R][HIT_RESERVED] = 0
	Total_core_cache_stats_breakdown[TEXTURE_ACC_R][MISS] = 0
	Total_core_cache_stats_breakdown[TEXTURE_ACC_R][RESERVATION_FAIL] = 0
	Total_core_cache_stats_breakdown[TEXTURE_ACC_R][SECTOR_MISS] = 0
	Total_core_cache_stats_breakdown[TEXTURE_ACC_R][MSHR_HIT] = 0
	Total_core_cache_stats_breakdown[GLOBAL_ACC_W][HIT] = 630
	Total_core_cache_stats_breakdown[GLOBAL_ACC_W][HIT_RESERVED] = 0
	Total_core_cache_stats_breakdown[GLOBAL_ACC_W][MISS] = 64
	Total_core_cache_stats_breakdown[GLOBAL_ACC_W][RESERVATION_FAIL] = 887
	Total_core_cache_stats_breakdown[GLOBAL_ACC_W][SECTOR_MISS] = 0
	Total_core_cache_stats_breakdown[GLOBAL_ACC_W][MSHR_HIT] = 0
	Total_core_cache_stats_breakdown[LOCAL_ACC_W][HIT] = 0
	Total_core_cache_stats_breakdown[LOCAL_ACC_W][HIT_RESERVED] = 0
	Total_core_cache_stats_breakdown[LOCAL_ACC_W][MISS] = 0
	Total_core_cache_stats_breakdown[LOCAL_ACC_W][RESERVATION_FAIL] = 0
	Total_core_cache_stats_breakdown[LOCAL_ACC_W][SECTOR_MISS] = 0
	Total_core_cache_stats_breakdown[LOCAL_ACC_W][MSHR_HIT] = 0
	Total_core_cache_stats_breakdown[L1_WRBK_ACC][HIT] = 0
	Total_core_cache_stats_breakdown[L1_WRBK_ACC][HIT_RESERVED] = 0
	Total_core_cache_stats_breakdown[L1_WRBK_ACC][MISS] = 0
	Total_core_cache_stats_breakdown[L1_WRBK_ACC][RESERVATION_FAIL] = 0
	Total_core_cache_stats_breakdown[L1_WRBK_ACC][SECTOR_MISS] = 0
	Total_core_cache_stats_breakdown[L1_WRBK_ACC][MSHR_HIT] = 0
	Total_core_cache_stats_breakdown[L2_WRBK_ACC][HIT] = 0
	Total_core_cache_stats_breakdown[L2_WRBK_ACC][HIT_RESERVED] = 0
	Total_core_cache_stats_breakdown[L2_WRBK_ACC][MISS] = 0
	Total_core_cache_stats_breakdown[L2_WRBK_ACC][RESERVATION_FAIL] = 0
	Total_core_cache_stats_breakdown[L2_WRBK_ACC][SECTOR_MISS] = 0
	Total_core_cache_stats_breakdown[L2_WRBK_ACC][MSHR_HIT] = 0
	Total_core_cache_stats_breakdown[INST_ACC_R][HIT] = 1913
	Total_core_cache_stats_breakdown[INST_ACC_R][HIT_RESERVED] = 0
	Total_core_cache_stats_breakdown[INST_ACC_R][MISS] = 769
	Total_core_cache_stats_breakdown[INST_ACC_R][RESERVATION_FAIL] = 0
	Total_core_cache_stats_breakdown[INST_ACC_R][SECTOR_MISS] = 0
	Total_core_cache_stats_breakdown[INST_ACC_R][MSHR_HIT] = 697
	Total_core_cache_stats_breakdown[L1_WR_ALLOC_R][HIT] = 0
	Total_core_cache_stats_breakdown[L1_WR_ALLOC_R][HIT_RESERVED] = 0
	Total_core_cache_stats_breakdown[L1_WR_ALLOC_R][MISS] = 0
	Total_core_cache_stats_breakdown[L1_WR_ALLOC_R][RESERVATION_FAIL] = 0
	Total_core_cache_stats_breakdown[L1_WR_ALLOC_R][SECTOR_MISS] = 0
	Total_core_cache_stats_breakdown[L1_WR_ALLOC_R][MSHR_HIT] = 0
	Total_core_cache_stats_breakdown[L2_WR_ALLOC_R][HIT] = 0
	Total_core_cache_stats_breakdown[L2_WR_ALLOC_R][HIT_RESERVED] = 0
	Total_core_cache_stats_breakdown[L2_WR_ALLOC_R][MISS] = 0
	Total_core_cache_stats_breakdown[L2_WR_ALLOC_R][RESERVATION_FAIL] = 0
	Total_core_cache_stats_breakdown[L2_WR_ALLOC_R][SECTOR_MISS] = 0
	Total_core_cache_stats_breakdown[L2_WR_ALLOC_R][MSHR_HIT] = 0
	Total_core_cache_stats_breakdown[GLOBAL_ACC_R][TOTAL_ACCESS] = 6103
	Total_core_cache_stats_breakdown[GLOBAL_ACC_W][TOTAL_ACCESS] = 694
	Total_core_cache_stats_breakdown[INST_ACC_R][TOTAL_ACCESS] = 3379

Total_core_cache_fail_stats:
	Total_core_cache_fail_stats_breakdown[GLOBAL_ACC_R][MISS_QUEUE_FULL] = 4883
	Total_core_cache_fail_stats_breakdown[GLOBAL_ACC_W][MISS_QUEUE_FULL] = 887
ctas_completed 2, Shader 0 warp_id issue ditsribution:
warp_id:
0, 1, 2, 3, 4, 5, 6, 7, 8, 9, 10, 11, 12, 13, 14, 15, 
distro:
252, 162, 162, 162, 162, 162, 162, 162, 162, 162, 162, 162, 162, 162, 162, 162, 
gpgpu_n_tot_thrd_icount = 154794
gpgpu_n_tot_w_icount = 5364
gpgpu_n_stall_shd_mem = 3214
gpgpu_n_mem_read_local = 0
gpgpu_n_mem_write_local = 0
gpgpu_n_mem_read_global = 3904
gpgpu_n_mem_write_global = 694
gpgpu_n_mem_texture = 0
gpgpu_n_mem_const = 0
gpgpu_n_load_insn  = 21128
gpgpu_n_store_insn = 1228
gpgpu_n_shmem_insn = 16416
gpgpu_n_sstarr_insn = 0
gpgpu_n_tex_insn = 0
gpgpu_n_const_mem_insn = 0
gpgpu_n_param_mem_insn = 0
gpgpu_n_shmem_bkconflict = 0
gpgpu_n_cache_bkconflict = 0
gpgpu_n_intrawarp_mshr_merge = 0
gpgpu_n_cmem_portconflict = 0
gpgpu_stall_shd_mem[c_mem][resource_stall] = 0
gpgpu_stall_shd_mem[s_mem][bk_conf] = 0
gpgpu_stall_shd_mem[gl_mem][resource_stall] = 2491
gpgpu_stall_shd_mem[gl_mem][coal_stall] = 723
gpgpu_stall_shd_mem[gl_mem][data_port_stall] = 0
gpu_reg_bank_conflict_stalls = 0
Warp Occupancy Distribution:
Stall:8309	W0_Idle:78583	W0_Scoreboard:14202	W1:174	W2:6	W3:18	W4:12	W5:24	W6:24	W7:36	W8:54	W9:18	W10:0	W11:0	W12:0	W13:0	W14:0	W15:0	W16:0	W17:0	W18:0	W19:0	W20:0	W21:0	W22:0	W23:18	W24:54	W25:36	W26:24	W27:24	W28:12	W29:18	W30:6	W31:4	W32:4636
single_issue_nums: WS0:1476	WS1:1296	WS2:1296	WS3:1296	
dual_issue_nums: WS0:0	WS1:0	WS2:0	WS3:0	
traffic_breakdown_coretomem[GLOBAL_ACC_R] = 31232 {8:3904,}
traffic_breakdown_coretomem[GLOBAL_ACC_W] = 27760 {40:694,}
traffic_breakdown_coretomem[INST_ACC_R] = 576 {8:72,}
traffic_breakdown_memtocore[GLOBAL_ACC_R] = 156160 {40:3904,}
traffic_breakdown_memtocore[GLOBAL_ACC_W] = 5552 {8:694,}
traffic_breakdown_memtocore[INST_ACC_R] = 11520 {40:288,}
ENTERING ACCELSIM HERE
maxmflatency = 464 
max_icnt2mem_latency = 150 
maxmrqlatency = 59 
max_icnt2sh_latency = 90 
averagemflatency = 249 
avg_icnt2mem_latency = 66 
avg_mrq_latency = 2 
avg_icnt2sh_latency = 7 
mrq_lat_table:757 	19 	22 	117 	31 	6 	0 	0 	0 	0 	0 	0 	0 	0 	0 	0 	0 	0 	0 	0 	0 	0 	0 	0 	0 	0 	0 	0 	0 	0 	0 	0 	
dq_lat_table:0 	0 	0 	0 	0 	0 	0 	0 	0 	0 	0 	0 	0 	0 	0 	0 	0 	0 	0 	0 	0 	0 	0 	0 	0 	0 	0 	0 	0 	0 	0 	0 	
mf_lat_table:0 	0 	0 	0 	0 	0 	0 	3186 	1412 	0 	0 	0 	0 	0 	0 	0 	0 	0 	0 	0 	0 	0 	0 	0 	0 	0 	0 	0 	0 	0 	0 	0 	
icnt2mem_lat_table:0 	71 	1 	0 	513 	2344 	1732 	9 	0 	0 	0 	0 	0 	0 	0 	0 	0 	0 	0 	0 	0 	0 	0 	0 	
icnt2sh_lat_table:0 	2662 	858 	643 	327 	89 	19 	0 	0 	0 	0 	0 	0 	0 	0 	0 	0 	0 	0 	0 	0 	0 	0 	0 	
mf_lat_pw_table:0 	0 	0 	0 	0 	0 	0 	10 	4 	0 	0 	0 	0 	0 	0 	0 	0 	0 	0 	0 	0 	0 	0 	0 	0 	0 	0 	0 	0 	0 	0 	0 	
maximum concurrent accesses to same row:
dram[0]:         8         8         0         0         0         1         0         0         0         0         0         0         0         0         0         0 
dram[1]:         4         4         0         1         0         1         0         0         0         0         0         1         0         0         0         0 
dram[2]:         4         8         0         0         0         0         0         0         0         0         2         1         1         0         0         0 
dram[3]:         8         8         0         0         0         0         0         0         0         0         0         1         0         1         0         0 
dram[4]:         8         8         0         0         1         0         0         0         0         1         0         0         0         0         1         0 
dram[5]:         8         4         0         0         0         0         2         0         0         0         0         0         0         0         0         0 
dram[6]:         4         4         0         0         1         0         0         1         0         0         0         1         0         0         0         0 
dram[7]:         4         4         0         0         0         0         0         0         1         0         0         0         0         1         0         0 
dram[8]:         4         1         0         0         0         0         0         0         0         0         0         0         0         0         0         0 
dram[9]:         0         4         0         0         0         0         0         0         0         0         0         1         0         0         1         0 
dram[10]:         8         4         0         0         0         0         0         0         2         0         0         0         0         0         0         0 
dram[11]:         8        20         0         0         0         0         0         1         0         0         0         1         0         0         0         0 
dram[12]:         0         1         0         0         0         0         0         0         0         0         0         0         0         0         0         0 
dram[13]:         0         1         0         0         0         0         0         0         0         0         0         0         1         0         0         1 
dram[14]:         0         4         1         0         0         0         0         0         1         0         0         1         0         0         0         0 
dram[15]:         4         4         0         0         0         0         0         0         0         1         0         0         0         0         0         0 
maximum service time to same row:
dram[0]:     12123     11776         0         0     16324     16323         0         0     16311     16613         0         0         0         0     16362         0 
dram[1]:     11763     12234         0     16325     16444     16324         0         0         0         0         0     16337         0         0         0         0 
dram[2]:     12671     11461         0         0     16526         0     16349     16346     16329     16655     16337     16604     16327     16526     16606     16339 
dram[3]:     10364     10051         0         0         0         0         0     16326     16331     16382     16366     16330         0     16312     16341         0 
dram[4]:     10572      9268         0     16621     16366         0         0         0         0     16345         0     16762     16323         0     16364     16381 
dram[5]:      8963      9644         0         0     16692         0     16335         0     16333     16354         0     16321         0         0     16694     16585 
dram[6]:      9258      8933     16336         0     16323         0     16590     16309         0     16319         0     16335     16612         0         0         0 
dram[7]:      8750      9056     16323         0         0         0         0         0     16350     16443     16378     16338     16376     16700         0         0 
dram[8]:     14906     16311     16344         0     16327         0         0     16348         0         0         0     16651         0         0         0     16588 
dram[9]:     17371     15208         0         0     16320         0     16699     16319     16591     16354     16363     16317         0         0     16313         0 
dram[10]:      9367     16341         0         0         0         0         0         0     16367         0     16344         0         0     16315     16607         0 
dram[11]:     11458      9677         0     16342     16616     16335         0     16321         0     16317     16318     16329         0         0         0         0 
dram[12]:     17368     16342         0     16325         0     16422         0         0         0         0         0     16335     16587         0         0     16446 
dram[13]:     17359     16653         0     16702     16318     16523     16423         0         0     16690         0     16329     16446     16448     16705     16317 
dram[14]:     17351      9995     16331         0     16326         0         0     16608     16529     16315     16696     16375         0         0         0     16320 
dram[15]:     10346     10688     16312     16314     16379         0     16620     16612     16315     16309         0         0         0     16589         0     16694 
average row accesses per activate:
dram[0]: 13.000000 13.000000      -nan      -nan  1.000000  1.000000      -nan      -nan  1.000000  1.000000      -nan      -nan      -nan      -nan  1.000000      -nan 
dram[1]: 12.000000 12.000000      -nan  1.000000  1.000000  1.000000      -nan      -nan      -nan      -nan      -nan  1.000000      -nan      -nan      -nan      -nan 
dram[2]:  8.333333 14.000000      -nan      -nan  1.000000      -nan  1.000000  1.000000  1.000000  2.000000  1.333333  1.000000  1.000000  1.000000  1.000000  1.000000 
dram[3]:  9.666667  9.666667      -nan      -nan      -nan      -nan      -nan  1.000000  1.000000  2.000000  1.000000  1.000000      -nan  1.333333  1.000000      -nan 
dram[4]: 14.000000  7.500000      -nan  1.000000  1.000000      -nan      -nan      -nan      -nan  1.000000      -nan  1.000000  1.000000      -nan  1.000000  1.000000 
dram[5]:  9.666667 11.500000      -nan      -nan  2.000000      -nan  1.500000      -nan  1.000000  1.000000      -nan  1.000000      -nan      -nan  1.000000  2.000000 
dram[6]: 12.000000 12.000000  1.000000      -nan  1.000000      -nan  1.000000  1.000000      -nan  1.000000      -nan  1.000000  1.000000      -nan      -nan      -nan 
dram[7]: 12.000000  5.400000  2.000000      -nan      -nan      -nan      -nan      -nan  1.000000  1.000000  1.000000  1.000000  1.000000  1.000000      -nan      -nan 
dram[8]: 11.500000  7.333333  1.000000      -nan  2.000000      -nan      -nan  1.000000      -nan      -nan      -nan  1.000000      -nan      -nan      -nan  1.000000 
dram[9]: 20.000000  6.500000      -nan      -nan  1.000000      -nan  1.000000  1.000000  1.000000  1.000000  1.000000  1.000000      -nan      -nan  1.000000      -nan 
dram[10]:  9.666667  6.500000      -nan      -nan      -nan      -nan      -nan      -nan  1.500000      -nan  1.000000      -nan      -nan  1.000000  1.000000      -nan 
dram[11]: 13.500000  9.333333      -nan  1.000000  1.000000  1.000000      -nan  1.000000      -nan  1.000000  1.000000  1.000000      -nan      -nan      -nan      -nan 
dram[12]: 20.000000 10.500000      -nan  1.000000      -nan  1.000000      -nan      -nan      -nan      -nan      -nan  1.000000  1.000000      -nan      -nan  1.000000 
dram[13]: 20.000000 10.500000      -nan  1.000000  1.000000  1.000000  1.000000      -nan      -nan  1.000000      -nan  1.000000  1.000000  1.000000  1.000000  1.000000 
dram[14]: 20.000000 11.500000  1.000000      -nan  1.000000      -nan      -nan  1.000000  1.000000  1.000000  2.000000  1.000000      -nan      -nan      -nan  1.000000 
dram[15]: 12.000000 11.500000  1.000000  1.000000  2.000000      -nan  1.000000  1.000000  1.000000  1.000000      -nan      -nan      -nan  1.000000      -nan  1.000000 
average row locality = 952/223 = 4.269058
number of total memory accesses made:
dram[0]:         0         0         0         0         0         0         0         0         0         0         0         0         0         0         0         0 
dram[1]:         0         0         0         0         0         0         0         0         0         0         0         0         0         0         0         0 
dram[2]:         0         0         0         0         0         0         0         0         0         0         0         0         0         0         0         0 
dram[3]:         0         0         0         0         0         0         0         0         0         0         0         0         0         0         0         0 
dram[4]:         0         0         0         0         0         0         0         0         0         0         0         0         0         0         0         0 
dram[5]:         0         0         0         0         0         0         0         0         0         0         0         0         0         0         0         0 
dram[6]:         0         0         0         0         0         0         0         0         0         0         0         0         0         0         0         0 
dram[7]:         0         0         0         0         0         0         0         0         0         0         0         0         0         0         0         0 
dram[8]:         0         0         0         0         0         0         0         0         0         0         0         0         0         0         0         0 
dram[9]:         0         0         0         0         0         0         0         0         0         0         0         0         0         0         0         0 
dram[10]:         0         0         0         0         0         0         0         0         0         0         0         0         0         0         0         0 
dram[11]:         0         0         0         0         0         0         0         0         0         0         0         0         0         0         0         0 
dram[12]:         0         0         0         0         0         0         0         0         0         0         0         0         0         0         0         0 
dram[13]:         0         0         0         0         0         0         0         0         0         0         0         0         0         0         0         0 
dram[14]:         0         0         0         0         0         0         0         0         0         0         0         0         0         0         0         0 
dram[15]:         0         0         0         0         0         0         0         0         0         0         0         0         0         0         0         0 
total accesses: 0
min_bank_accesses = 0!
min_chip_accesses = 0!
number of total read accesses:
dram[0]:        26        26         0         0         1         2         0         0         1         1         0         0         0         0         1         0 
dram[1]:        24        24         0         2         1         3         0         0         0         0         0         2         0         0         0         0 
dram[2]:        25        28         0         0         1         0         1         1         1         2         4         2         2         1         1         1 
dram[3]:        29        29         0         0         0         0         0         1         1         2         1         3         0         4         1         0 
dram[4]:        28        30         0         1         2         0         0         0         0         2         0         1         1         0         2         1 
dram[5]:        29        23         0         0         2         0         3         0         1         1         0         1         0         0         1         2 
dram[6]:        24        24         1         0         2         0         1         2         0         1         0         2         1         0         0         0 
dram[7]:        24        27         2         0         0         0         0         0         2         1         1         1         1         2         0         0 
dram[8]:        23        22         1         0         2         0         0         1         0         0         0         1         0         0         0         1 
dram[9]:        20        26         0         0         1         0         1         1         1         1         1         3         0         0         4         0 
dram[10]:        29        26         0         0         0         0         0         0         3         0         1         0         0         1         1         0 
dram[11]:        27        28         0         1         1         1         0         2         0         1         1         2         0         0         0         0 
dram[12]:        20        21         0         1         0         1         0         0         0         0         0         1         1         0         0         1 
dram[13]:        20        21         0         1         1         1         1         0         0         1         0         1         2         1         1         2 
dram[14]:        20        23         2         0         1         0         0         1         2         1         2         2         0         0         0         1 
dram[15]:        24        23         1         1         2         0         1         1         1         2         0         0         0         1         0         1 
total dram reads = 952
min_bank_accesses = 0!
chip skew: 71/46 = 1.54
number of total write accesses:
dram[0]:         0         0         0         0         0         0         0         0         0         0         0         0         0         0         0         0 
dram[1]:         0         0         0         0         0         0         0         0         0         0         0         0         0         0         0         0 
dram[2]:         0         0         0         0         0         0         0         0         0         0         0         0         0         0         0         0 
dram[3]:         0         0         0         0         0         0         0         0         0         0         0         0         0         0         0         0 
dram[4]:         0         0         0         0         0         0         0         0         0         0         0         0         0         0         0         0 
dram[5]:         0         0         0         0         0         0         0         0         0         0         0         0         0         0         0         0 
dram[6]:         0         0         0         0         0         0         0         0         0         0         0         0         0         0         0         0 
dram[7]:         0         0         0         0         0         0         0         0         0         0         0         0         0         0         0         0 
dram[8]:         0         0         0         0         0         0         0         0         0         0         0         0         0         0         0         0 
dram[9]:         0         0         0         0         0         0         0         0         0         0         0         0         0         0         0         0 
dram[10]:         0         0         0         0         0         0         0         0         0         0         0         0         0         0         0         0 
dram[11]:         0         0         0         0         0         0         0         0         0         0         0         0         0         0         0         0 
dram[12]:         0         0         0         0         0         0         0         0         0         0         0         0         0         0         0         0 
dram[13]:         0         0         0         0         0         0         0         0         0         0         0         0         0         0         0         0 
dram[14]:         0         0         0         0         0         0         0         0         0         0         0         0         0         0         0         0 
dram[15]:         0         0         0         0         0         0         0         0         0         0         0         0         0         0         0         0 
total dram writes = 0
min_bank_accesses = 0!
min_chip_accesses = 0!
average mf latency per bank:
dram[0]:        712       685    none      none        1201       742    none      none         316       314    none      none      none      none         313    none  
dram[1]:        806       829    none        7514      1213       640    none      none      none      none      none         321    none      none      none      none  
dram[2]:        780       687    none      none        1218    none         318       330       324       314       335       319       323       319       317       322
dram[3]:        709       684    none      none      none      none      none         319       325       322       315       330    none         351       322    none  
dram[4]:        710       674    none       14856       322    none      none      none      none         321    none         313       319    none         319       318
dram[5]:        692       811    none      none         315    none         334    none         319       322    none         320    none      none         317       314
dram[6]:        810       815     14033    none         337    none         317       319    none         318    none         323       312    none      none      none  
dram[7]:        787       753      7450    none      none      none      none      none         322       314       319       320       315       323    none      none  
dram[8]:        827       910     14552    none         323    none      none         321    none      none      none         313    none      none      none         316
dram[9]:        962       760    none      none         322    none         317       329       318       321       314       322    none      none         331    none  
dram[10]:        692       773    none      none      none      none      none      none         319    none         320    none      none         318       314    none  
dram[11]:        726       703    none       14716       316       321    none         332    none         318       330       324    none      none      none      none  
dram[12]:        965       931    none       13975    none         312    none      none      none      none      none         321       314    none      none         313
dram[13]:        955       916    none       17043       323       313       313    none      none         313    none         318       321       317       320       325
dram[14]:        929       792      7419    none         318    none      none         315       320       317       316       319    none      none      none         319
dram[15]:        784       791     14283     14095       318    none         315       314       329       320    none      none      none         316    none         315
maximum mf latency per bank:
dram[0]:        396       389       323       299       323       326         0         0       316       314         0         0         0         0       313         0
dram[1]:        397       446       308       323       314       376         0         0         0         0         0       324         0         0         0         0
dram[2]:        464       450       269       261       315       225       318       330       324       316       347       325       326       319       317       322
dram[3]:        449       389       270       264       224       224         0       319       325       323       315       342         0       369       322         0
dram[4]:        444       446       270       314       327         0         0         0         0       323         0       313       319         0       325       318
dram[5]:        430       395       264       264       317         0       356         0       319       322         0       320         0         0       317       315
dram[6]:        404       406       322       265       353         0       317       324         0       318         0       330       312         0         0         0
dram[7]:        386       419       318       271         0         0         0         0       325       314       319       320       315       329         0         0
dram[8]:        402       422       319       270       326         0         0       321         0         0         0       313         0         0         0       316
dram[9]:        390       387       270       264       322         0       317       329       318       321       314       326         0         0       357         0
dram[10]:        435       437       264       270         0         0         0         0       324         0       320         0         0       318       314         0
dram[11]:        439       433       264       321       316       321         0       345         0       318       330       325         0         0         0         0
dram[12]:        435       385       261       319         0       312         0         0         0         0         0       321       314         0         0       313
dram[13]:        386       388       278       317       323       313       313         0         0       313         0       318       328       317       320       333
dram[14]:        382       395       358       303       318         0         0       315       324       317       317       325         0         0         0       319
dram[15]:        384       386       317       325       321         0       315       314       329       326         0         0         0       316         0       315
Memory Partition 0: 
Cache L2_bank_000:
MSHR contents

Cache L2_bank_001:
MSHR contents

In Dram Latency Queue (total = 0): 
DRAM[0]: 16 bks, busW=2 BL=16 CL=20, tRRD=10 tCCD=4, tRCD=20 tRAS=50 tRP=20 tRC=62
n_cmd=33599 n_nop=33528 n_act=10 n_pre=3 n_ref_event=0 n_req=58 n_rd=58 n_rd_L2_A=0 n_write=0 n_wr_bk=0 bw_util=0.006905
n_activity=827 dram_eff=0.2805
bk0: 26a 33483i bk1: 26a 33496i bk2: 0a 33597i bk3: 0a 33600i bk4: 1a 33572i bk5: 2a 33535i bk6: 0a 33595i bk7: 0a 33598i bk8: 1a 33578i bk9: 1a 33577i bk10: 0a 33597i bk11: 0a 33597i bk12: 0a 33598i bk13: 0a 33600i bk14: 1a 33580i bk15: 0a 33601i 

------------------------------------------------------------------------

Row_Buffer_Locality = 0.827586
Row_Buffer_Locality_read = 0.827586
Row_Buffer_Locality_write = -nan
Bank_Level_Parallism = 1.287425
Bank_Level_Parallism_Col = 0.981000
Bank_Level_Parallism_Ready = 1.086207
write_to_read_ratio_blp_rw_average = 0.000000
GrpLevelPara = 0.000000 

BW Util details:
bwutil = 0.006905 
total_CMD = 33599 
util_bw = 232 
Wasted_Col = 153 
Wasted_Row = 33 
Idle = 33181 

BW Util Bottlenecks: 
RCDc_limit = 183 
RCDWRc_limit = 0 
WTRc_limit = 0 
RTWc_limit = 0 
CCDLc_limit = 0 
rwq = 0 
CCDLc_limit_alone = 0 
WTRc_limit_alone = 0 
RTWc_limit_alone = 0 

Commands details: 
total_CMD = 33599 
n_nop = 33528 
Read = 58 
Write = 0 
L2_Alloc = 0 
L2_WB = 0 
n_act = 10 
n_pre = 3 
n_ref = 0 
n_req = 58 
total_req = 58 

Dual Bus Interface Util: 
issued_total_row = 13 
issued_total_col = 58 
Row_Bus_Util =  0.000387 
CoL_Bus_Util = 0.001726 
Either_Row_CoL_Bus_Util = 0.002113 
Issued_on_Two_Bus_Simul_Util = 0.000000 
issued_two_Eff = 0.000000 
queue_avg = 0.004554 


dram_util_bins: 0 0 0 0 0 0 0 0 0 0
dram_eff_bins: 0 0 0 0 0 0 0 0 0 0
mrqq: max=3 avg=0.00455371
Memory Partition 1: 
Cache L2_bank_002:
MSHR contents

Cache L2_bank_003:
MSHR contents

In Dram Latency Queue (total = 0): 
DRAM[1]: 16 bks, busW=2 BL=16 CL=20, tRRD=10 tCCD=4, tRCD=20 tRAS=50 tRP=20 tRC=62
n_cmd=33599 n_nop=33525 n_act=12 n_pre=6 n_ref_event=0 n_req=56 n_rd=56 n_rd_L2_A=0 n_write=0 n_wr_bk=0 bw_util=0.006667
n_activity=852 dram_eff=0.2629
bk0: 24a 33496i bk1: 24a 33465i bk2: 0a 33599i bk3: 2a 33531i bk4: 1a 33576i bk5: 3a 33439i bk6: 0a 33596i bk7: 0a 33599i bk8: 0a 33599i bk9: 0a 33599i bk10: 0a 33599i bk11: 2a 33537i bk12: 0a 33596i bk13: 0a 33599i bk14: 0a 33599i bk15: 0a 33600i 

------------------------------------------------------------------------

Row_Buffer_Locality = 0.785714
Row_Buffer_Locality_read = 0.785714
Row_Buffer_Locality_write = -nan
Bank_Level_Parallism = 1.221545
Bank_Level_Parallism_Col = 1.151863
Bank_Level_Parallism_Ready = 1.196429
write_to_read_ratio_blp_rw_average = 0.000000
GrpLevelPara = 1.134670 

BW Util details:
bwutil = 0.006667 
total_CMD = 33599 
util_bw = 224 
Wasted_Col = 209 
Wasted_Row = 128 
Idle = 33038 

BW Util Bottlenecks: 
RCDc_limit = 225 
RCDWRc_limit = 0 
WTRc_limit = 0 
RTWc_limit = 0 
CCDLc_limit = 0 
rwq = 0 
CCDLc_limit_alone = 0 
WTRc_limit_alone = 0 
RTWc_limit_alone = 0 

Commands details: 
total_CMD = 33599 
n_nop = 33525 
Read = 56 
Write = 0 
L2_Alloc = 0 
L2_WB = 0 
n_act = 12 
n_pre = 6 
n_ref = 0 
n_req = 56 
total_req = 56 

Dual Bus Interface Util: 
issued_total_row = 18 
issued_total_col = 56 
Row_Bus_Util =  0.000536 
CoL_Bus_Util = 0.001667 
Either_Row_CoL_Bus_Util = 0.002202 
Issued_on_Two_Bus_Simul_Util = 0.000000 
issued_two_Eff = 0.000000 
queue_avg = 0.008691 


dram_util_bins: 0 0 0 0 0 0 0 0 0 0
dram_eff_bins: 0 0 0 0 0 0 0 0 0 0
mrqq: max=3 avg=0.00869073
Memory Partition 2: 
Cache L2_bank_004:
MSHR contents

Cache L2_bank_005:
MSHR contents

In Dram Latency Queue (total = 0): 
DRAM[2]: 16 bks, busW=2 BL=16 CL=20, tRRD=10 tCCD=4, tRCD=20 tRAS=50 tRP=20 tRC=62
n_cmd=33599 n_nop=33504 n_act=20 n_pre=7 n_ref_event=0 n_req=70 n_rd=70 n_rd_L2_A=0 n_write=0 n_wr_bk=0 bw_util=0.008334
n_activity=1069 dram_eff=0.2619
bk0: 25a 33436i bk1: 28a 33477i bk2: 0a 33593i bk3: 0a 33597i bk4: 1a 33579i bk5: 0a 33599i bk6: 1a 33579i bk7: 1a 33564i bk8: 1a 33574i bk9: 2a 33578i bk10: 4a 33468i bk11: 2a 33536i bk12: 2a 33538i bk13: 1a 33570i bk14: 1a 33571i bk15: 1a 33571i 

------------------------------------------------------------------------

Row_Buffer_Locality = 0.714286
Row_Buffer_Locality_read = 0.714286
Row_Buffer_Locality_write = -nan
Bank_Level_Parallism = 1.496310
Bank_Level_Parallism_Col = 1.254425
Bank_Level_Parallism_Ready = 1.098592
write_to_read_ratio_blp_rw_average = 0.000000
GrpLevelPara = 1.230088 

BW Util details:
bwutil = 0.008334 
total_CMD = 33599 
util_bw = 280 
Wasted_Col = 270 
Wasted_Row = 75 
Idle = 32974 

BW Util Bottlenecks: 
RCDc_limit = 340 
RCDWRc_limit = 0 
WTRc_limit = 0 
RTWc_limit = 0 
CCDLc_limit = 0 
rwq = 0 
CCDLc_limit_alone = 0 
WTRc_limit_alone = 0 
RTWc_limit_alone = 0 

Commands details: 
total_CMD = 33599 
n_nop = 33504 
Read = 70 
Write = 0 
L2_Alloc = 0 
L2_WB = 0 
n_act = 20 
n_pre = 7 
n_ref = 0 
n_req = 70 
total_req = 70 

Dual Bus Interface Util: 
issued_total_row = 27 
issued_total_col = 70 
Row_Bus_Util =  0.000804 
CoL_Bus_Util = 0.002083 
Either_Row_CoL_Bus_Util = 0.002827 
Issued_on_Two_Bus_Simul_Util = 0.000060 
issued_two_Eff = 0.021053 
queue_avg = 0.010625 


dram_util_bins: 0 0 0 0 0 0 0 0 0 0
dram_eff_bins: 0 0 0 0 0 0 0 0 0 0
mrqq: max=5 avg=0.0106253
Memory Partition 3: 
Cache L2_bank_006:
MSHR contents

Cache L2_bank_007:
MSHR contents

In Dram Latency Queue (total = 0): 
DRAM[3]: 16 bks, busW=2 BL=16 CL=20, tRRD=10 tCCD=4, tRCD=20 tRAS=50 tRP=20 tRC=62
n_cmd=33599 n_nop=33503 n_act=17 n_pre=8 n_ref_event=0 n_req=71 n_rd=71 n_rd_L2_A=0 n_write=0 n_wr_bk=0 bw_util=0.008453
n_activity=931 dram_eff=0.305
bk0: 29a 33440i bk1: 29a 33446i bk2: 0a 33594i bk3: 0a 33598i bk4: 0a 33598i bk5: 0a 33601i bk6: 0a 33602i bk7: 1a 33582i bk8: 1a 33569i bk9: 2a 33577i bk10: 1a 33581i bk11: 3a 33472i bk12: 0a 33596i bk13: 4a 33438i bk14: 1a 33570i bk15: 0a 33596i 

------------------------------------------------------------------------

Row_Buffer_Locality = 0.760563
Row_Buffer_Locality_read = 0.760563
Row_Buffer_Locality_write = -nan
Bank_Level_Parallism = 1.564612
Bank_Level_Parallism_Col = 1.209639
Bank_Level_Parallism_Ready = 1.098592
write_to_read_ratio_blp_rw_average = 0.000000
GrpLevelPara = 1.154217 

BW Util details:
bwutil = 0.008453 
total_CMD = 33599 
util_bw = 284 
Wasted_Col = 236 
Wasted_Row = 69 
Idle = 33010 

BW Util Bottlenecks: 
RCDc_limit = 294 
RCDWRc_limit = 0 
WTRc_limit = 0 
RTWc_limit = 0 
CCDLc_limit = 0 
rwq = 0 
CCDLc_limit_alone = 0 
WTRc_limit_alone = 0 
RTWc_limit_alone = 0 

Commands details: 
total_CMD = 33599 
n_nop = 33503 
Read = 71 
Write = 0 
L2_Alloc = 0 
L2_WB = 0 
n_act = 17 
n_pre = 8 
n_ref = 0 
n_req = 71 
total_req = 71 

Dual Bus Interface Util: 
issued_total_row = 25 
issued_total_col = 71 
Row_Bus_Util =  0.000744 
CoL_Bus_Util = 0.002113 
Either_Row_CoL_Bus_Util = 0.002857 
Issued_on_Two_Bus_Simul_Util = 0.000000 
issued_two_Eff = 0.000000 
queue_avg = 0.010000 


dram_util_bins: 0 0 0 0 0 0 0 0 0 0
dram_eff_bins: 0 0 0 0 0 0 0 0 0 0
mrqq: max=3 avg=0.0100003
Memory Partition 4: 
Cache L2_bank_008:
MSHR contents

Cache L2_bank_009:
MSHR contents

In Dram Latency Queue (total = 0): 
DRAM[4]: 16 bks, busW=2 BL=16 CL=20, tRRD=10 tCCD=4, tRCD=20 tRAS=50 tRP=20 tRC=62
n_cmd=33599 n_nop=33508 n_act=16 n_pre=7 n_ref_event=0 n_req=68 n_rd=68 n_rd_L2_A=0 n_write=0 n_wr_bk=0 bw_util=0.008095
n_activity=1022 dram_eff=0.2661
bk0: 28a 33482i bk1: 30a 33386i bk2: 0a 33591i bk3: 1a 33576i bk4: 2a 33528i bk5: 0a 33596i bk6: 0a 33599i bk7: 0a 33600i bk8: 0a 33600i bk9: 2a 33539i bk10: 0a 33599i bk11: 1a 33581i bk12: 1a 33580i bk13: 0a 33600i bk14: 2a 33540i bk15: 1a 33579i 

------------------------------------------------------------------------

Row_Buffer_Locality = 0.764706
Row_Buffer_Locality_read = 0.764706
Row_Buffer_Locality_write = -nan
Bank_Level_Parallism = 1.258555
Bank_Level_Parallism_Col = 1.123256
Bank_Level_Parallism_Ready = 1.088235
write_to_read_ratio_blp_rw_average = 0.000000
GrpLevelPara = 1.100000 

BW Util details:
bwutil = 0.008095 
total_CMD = 33599 
util_bw = 272 
Wasted_Col = 269 
Wasted_Row = 80 
Idle = 32978 

BW Util Bottlenecks: 
RCDc_limit = 299 
RCDWRc_limit = 0 
WTRc_limit = 0 
RTWc_limit = 0 
CCDLc_limit = 0 
rwq = 0 
CCDLc_limit_alone = 0 
WTRc_limit_alone = 0 
RTWc_limit_alone = 0 

Commands details: 
total_CMD = 33599 
n_nop = 33508 
Read = 68 
Write = 0 
L2_Alloc = 0 
L2_WB = 0 
n_act = 16 
n_pre = 7 
n_ref = 0 
n_req = 68 
total_req = 68 

Dual Bus Interface Util: 
issued_total_row = 23 
issued_total_col = 68 
Row_Bus_Util =  0.000685 
CoL_Bus_Util = 0.002024 
Either_Row_CoL_Bus_Util = 0.002708 
Issued_on_Two_Bus_Simul_Util = 0.000000 
issued_two_Eff = 0.000000 
queue_avg = 0.006964 


dram_util_bins: 0 0 0 0 0 0 0 0 0 0
dram_eff_bins: 0 0 0 0 0 0 0 0 0 0
mrqq: max=4 avg=0.00696449
Memory Partition 5: 
Cache L2_bank_010:
MSHR contents

Cache L2_bank_011:
MSHR contents

In Dram Latency Queue (total = 0): 
DRAM[5]: 16 bks, busW=2 BL=16 CL=20, tRRD=10 tCCD=4, tRCD=20 tRAS=50 tRP=20 tRC=62
n_cmd=33599 n_nop=33519 n_act=13 n_pre=4 n_ref_event=0 n_req=63 n_rd=63 n_rd_L2_A=0 n_write=0 n_wr_bk=0 bw_util=0.0075
n_activity=941 dram_eff=0.2678
bk0: 29a 33439i bk1: 23a 33498i bk2: 0a 33594i bk3: 0a 33597i bk4: 2a 33576i bk5: 0a 33599i bk6: 3a 33503i bk7: 0a 33596i bk8: 1a 33579i bk9: 1a 33577i bk10: 0a 33601i bk11: 1a 33580i bk12: 0a 33599i bk13: 0a 33600i bk14: 1a 33575i bk15: 2a 33578i 

------------------------------------------------------------------------

Row_Buffer_Locality = 0.793651
Row_Buffer_Locality_read = 0.793651
Row_Buffer_Locality_write = -nan
Bank_Level_Parallism = 1.284038
Bank_Level_Parallism_Col = 1.159091
Bank_Level_Parallism_Ready = 1.079365
write_to_read_ratio_blp_rw_average = 0.000000
GrpLevelPara = 1.159091 

BW Util details:
bwutil = 0.007500 
total_CMD = 33599 
util_bw = 252 
Wasted_Col = 206 
Wasted_Row = 58 
Idle = 33083 

BW Util Bottlenecks: 
RCDc_limit = 236 
RCDWRc_limit = 0 
WTRc_limit = 0 
RTWc_limit = 0 
CCDLc_limit = 0 
rwq = 0 
CCDLc_limit_alone = 0 
WTRc_limit_alone = 0 
RTWc_limit_alone = 0 

Commands details: 
total_CMD = 33599 
n_nop = 33519 
Read = 63 
Write = 0 
L2_Alloc = 0 
L2_WB = 0 
n_act = 13 
n_pre = 4 
n_ref = 0 
n_req = 63 
total_req = 63 

Dual Bus Interface Util: 
issued_total_row = 17 
issued_total_col = 63 
Row_Bus_Util =  0.000506 
CoL_Bus_Util = 0.001875 
Either_Row_CoL_Bus_Util = 0.002381 
Issued_on_Two_Bus_Simul_Util = 0.000000 
issued_two_Eff = 0.000000 
queue_avg = 0.009554 


dram_util_bins: 0 0 0 0 0 0 0 0 0 0
dram_eff_bins: 0 0 0 0 0 0 0 0 0 0
mrqq: max=4 avg=0.00955386
Memory Partition 6: 
Cache L2_bank_012:
MSHR contents

Cache L2_bank_013:
MSHR contents

In Dram Latency Queue (total = 0): 
DRAM[6]: 16 bks, busW=2 BL=16 CL=20, tRRD=10 tCCD=4, tRCD=20 tRAS=50 tRP=20 tRC=62
n_cmd=33599 n_nop=33522 n_act=14 n_pre=5 n_ref_event=0 n_req=58 n_rd=58 n_rd_L2_A=0 n_write=0 n_wr_bk=0 bw_util=0.006905
n_activity=973 dram_eff=0.2384
bk0: 24a 33490i bk1: 24a 33518i bk2: 1a 33570i bk3: 0a 33600i bk4: 2a 33508i bk5: 0a 33597i bk6: 1a 33579i bk7: 2a 33537i bk8: 0a 33597i bk9: 1a 33579i bk10: 0a 33598i bk11: 2a 33539i bk12: 1a 33576i bk13: 0a 33596i bk14: 0a 33598i bk15: 0a 33601i 

------------------------------------------------------------------------

Row_Buffer_Locality = 0.758621
Row_Buffer_Locality_read = 0.758621
Row_Buffer_Locality_write = -nan
Bank_Level_Parallism = 1.268519
Bank_Level_Parallism_Col = 1.128280
Bank_Level_Parallism_Ready = 1.017241
write_to_read_ratio_blp_rw_average = 0.000000
GrpLevelPara = 1.128280 

BW Util details:
bwutil = 0.006905 
total_CMD = 33599 
util_bw = 232 
Wasted_Col = 221 
Wasted_Row = 77 
Idle = 33069 

BW Util Bottlenecks: 
RCDc_limit = 254 
RCDWRc_limit = 0 
WTRc_limit = 0 
RTWc_limit = 0 
CCDLc_limit = 0 
rwq = 0 
CCDLc_limit_alone = 0 
WTRc_limit_alone = 0 
RTWc_limit_alone = 0 

Commands details: 
total_CMD = 33599 
n_nop = 33522 
Read = 58 
Write = 0 
L2_Alloc = 0 
L2_WB = 0 
n_act = 14 
n_pre = 5 
n_ref = 0 
n_req = 58 
total_req = 58 

Dual Bus Interface Util: 
issued_total_row = 19 
issued_total_col = 58 
Row_Bus_Util =  0.000565 
CoL_Bus_Util = 0.001726 
Either_Row_CoL_Bus_Util = 0.002292 
Issued_on_Two_Bus_Simul_Util = 0.000000 
issued_two_Eff = 0.000000 
queue_avg = 0.005774 


dram_util_bins: 0 0 0 0 0 0 0 0 0 0
dram_eff_bins: 0 0 0 0 0 0 0 0 0 0
mrqq: max=3 avg=0.00577398
Memory Partition 7: 
Cache L2_bank_014:
MSHR contents

Cache L2_bank_015:
MSHR contents

In Dram Latency Queue (total = 0): 
DRAM[7]: 16 bks, busW=2 BL=16 CL=20, tRRD=10 tCCD=4, tRCD=20 tRAS=50 tRP=20 tRC=62
n_cmd=33599 n_nop=33515 n_act=16 n_pre=7 n_ref_event=0 n_req=61 n_rd=61 n_rd_L2_A=0 n_write=0 n_wr_bk=0 bw_util=0.007262
n_activity=960 dram_eff=0.2542
bk0: 24a 33488i bk1: 27a 33362i bk2: 2a 33569i bk3: 0a 33594i bk4: 0a 33595i bk5: 0a 33599i bk6: 0a 33601i bk7: 0a 33602i bk8: 2a 33542i bk9: 1a 33581i bk10: 1a 33574i bk11: 1a 33580i bk12: 1a 33580i bk13: 2a 33528i bk14: 0a 33596i bk15: 0a 33599i 

------------------------------------------------------------------------

Row_Buffer_Locality = 0.737705
Row_Buffer_Locality_read = 0.737705
Row_Buffer_Locality_write = -nan
Bank_Level_Parallism = 1.347280
Bank_Level_Parallism_Col = 1.189610
Bank_Level_Parallism_Ready = 1.081967
write_to_read_ratio_blp_rw_average = 0.000000
GrpLevelPara = 1.150649 

BW Util details:
bwutil = 0.007262 
total_CMD = 33599 
util_bw = 244 
Wasted_Col = 238 
Wasted_Row = 80 
Idle = 33037 

BW Util Bottlenecks: 
RCDc_limit = 284 
RCDWRc_limit = 0 
WTRc_limit = 0 
RTWc_limit = 0 
CCDLc_limit = 0 
rwq = 0 
CCDLc_limit_alone = 0 
WTRc_limit_alone = 0 
RTWc_limit_alone = 0 

Commands details: 
total_CMD = 33599 
n_nop = 33515 
Read = 61 
Write = 0 
L2_Alloc = 0 
L2_WB = 0 
n_act = 16 
n_pre = 7 
n_ref = 0 
n_req = 61 
total_req = 61 

Dual Bus Interface Util: 
issued_total_row = 23 
issued_total_col = 61 
Row_Bus_Util =  0.000685 
CoL_Bus_Util = 0.001816 
Either_Row_CoL_Bus_Util = 0.002500 
Issued_on_Two_Bus_Simul_Util = 0.000000 
issued_two_Eff = 0.000000 
queue_avg = 0.009048 


dram_util_bins: 0 0 0 0 0 0 0 0 0 0
dram_eff_bins: 0 0 0 0 0 0 0 0 0 0
mrqq: max=5 avg=0.00904789
Memory Partition 8: 
Cache L2_bank_016:
MSHR contents

Cache L2_bank_017:
MSHR contents

In Dram Latency Queue (total = 0): 
DRAM[8]: 16 bks, busW=2 BL=16 CL=20, tRRD=10 tCCD=4, tRCD=20 tRAS=50 tRP=20 tRC=62
n_cmd=33599 n_nop=33535 n_act=10 n_pre=3 n_ref_event=0 n_req=51 n_rd=51 n_rd_L2_A=0 n_write=0 n_wr_bk=0 bw_util=0.006072
n_activity=721 dram_eff=0.2829
bk0: 23a 33496i bk1: 22a 33444i bk2: 1a 33573i bk3: 0a 33595i bk4: 2a 33573i bk5: 0a 33597i bk6: 0a 33598i bk7: 1a 33577i bk8: 0a 33599i bk9: 0a 33599i bk10: 0a 33599i bk11: 1a 33578i bk12: 0a 33599i bk13: 0a 33601i bk14: 0a 33602i bk15: 1a 33582i 

------------------------------------------------------------------------

Row_Buffer_Locality = 0.803922
Row_Buffer_Locality_read = 0.803922
Row_Buffer_Locality_write = -nan
Bank_Level_Parallism = 1.359477
Bank_Level_Parallism_Col = 1.182482
Bank_Level_Parallism_Ready = 1.075472
write_to_read_ratio_blp_rw_average = 0.000000
GrpLevelPara = 1.182482 

BW Util details:
bwutil = 0.006072 
total_CMD = 33599 
util_bw = 204 
Wasted_Col = 153 
Wasted_Row = 22 
Idle = 33220 

BW Util Bottlenecks: 
RCDc_limit = 178 
RCDWRc_limit = 0 
WTRc_limit = 0 
RTWc_limit = 0 
CCDLc_limit = 0 
rwq = 0 
CCDLc_limit_alone = 0 
WTRc_limit_alone = 0 
RTWc_limit_alone = 0 

[...]
Bank_Level_Parallism_Ready = 1.025316
write_to_read_ratio_blp_rw_average = 0.000000
GrpLevelPara = 1.037090 

BW Util details:
bwutil = 0.000770 
total_CMD = 410463 
util_bw = 316 
Wasted_Col = 563 
Wasted_Row = 351 
Idle = 409233 

BW Util Bottlenecks: 
RCDc_limit = 583 
RCDWRc_limit = 0 
WTRc_limit = 0 
RTWc_limit = 0 
CCDLc_limit = 0 
rwq = 0 
CCDLc_limit_alone = 0 
WTRc_limit_alone = 0 
RTWc_limit_alone = 0 

Commands details: 
total_CMD = 410463 
n_nop = 410338 
Read = 79 
Write = 0 
L2_Alloc = 0 
L2_WB = 0 
n_act = 30 
n_pre = 17 
n_ref = 0 
n_req = 79 
total_req = 79 

Dual Bus Interface Util: 
issued_total_row = 47 
issued_total_col = 79 
Row_Bus_Util =  0.000115 
CoL_Bus_Util = 0.000192 
Either_Row_CoL_Bus_Util = 0.000305 
Issued_on_Two_Bus_Simul_Util = 0.000002 
issued_two_Eff = 0.008000 
queue_avg = 0.000731 


dram_util_bins: 0 0 0 0 0 0 0 0 0 0
dram_eff_bins: 0 0 0 0 0 0 0 0 0 0
mrqq: max=3 avg=0.000730882
Memory Partition 11: 
Cache L2_bank_022:
MSHR contents

Cache L2_bank_023:
MSHR contents

In Dram Latency Queue (total = 0): 
DRAM[11]: 16 bks, busW=2 BL=16 CL=20, tRRD=10 tCCD=4, tRCD=20 tRAS=50 tRP=20 tRC=62
n_cmd=410463 n_nop=410305 n_act=41 n_pre=25 n_ref_event=0 n_req=92 n_rd=92 n_rd_L2_A=0 n_write=0 n_wr_bk=0 bw_util=0.0008965
n_activity=2520 dram_eff=0.146
bk0: 28a 410314i bk1: 29a 410289i bk2: 5a 410281i bk3: 4a 410311i bk4: 1a 410439i bk5: 4a 410310i bk6: 1a 410438i bk7: 3a 410332i bk8: 3a 410320i bk9: 4a 410312i bk10: 2a 410372i bk11: 2a 410388i bk12: 1a 410437i bk13: 1a 410442i bk14: 3a 410400i bk15: 1a 410450i 

------------------------------------------------------------------------

Row_Buffer_Locality = 0.554348
Row_Buffer_Locality_read = 0.554348
Row_Buffer_Locality_write = -nan
Bank_Level_Parallism = 1.270101
Bank_Level_Parallism_Col = 1.135991
Bank_Level_Parallism_Ready = 1.043011
write_to_read_ratio_blp_rw_average = 0.000000
GrpLevelPara = 1.120750 

BW Util details:
bwutil = 0.000897 
total_CMD = 410463 
util_bw = 368 
Wasted_Col = 674 
Wasted_Row = 390 
Idle = 409031 

BW Util Bottlenecks: 
RCDc_limit = 755 
RCDWRc_limit = 0 
WTRc_limit = 0 
RTWc_limit = 0 
CCDLc_limit = 0 
rwq = 0 
CCDLc_limit_alone = 0 
WTRc_limit_alone = 0 
RTWc_limit_alone = 0 

Commands details: 
total_CMD = 410463 
n_nop = 410305 
Read = 92 
Write = 0 
L2_Alloc = 0 
L2_WB = 0 
n_act = 41 
n_pre = 25 
n_ref = 0 
n_req = 92 
total_req = 92 

Dual Bus Interface Util: 
issued_total_row = 66 
issued_total_col = 92 
Row_Bus_Util =  0.000161 
CoL_Bus_Util = 0.000224 
Either_Row_CoL_Bus_Util = 0.000385 
Issued_on_Two_Bus_Simul_Util = 0.000000 
issued_two_Eff = 0.000000 
queue_avg = 0.000967 


dram_util_bins: 0 0 0 0 0 0 0 0 0 0
dram_eff_bins: 0 0 0 0 0 0 0 0 0 0
mrqq: max=4 avg=0.0009672
Memory Partition 12: 
Cache L2_bank_024:
MSHR contents

Cache L2_bank_025:
MSHR contents

In Dram Latency Queue (total = 0): 
DRAM[12]: 16 bks, busW=2 BL=16 CL=20, tRRD=10 tCCD=4, tRCD=20 tRAS=50 tRP=20 tRC=62
n_cmd=410463 n_nop=410335 n_act=34 n_pre=19 n_ref_event=0 n_req=75 n_rd=75 n_rd_L2_A=0 n_write=0 n_wr_bk=0 bw_util=0.0007309
n_activity=2053 dram_eff=0.1461
bk0: 22a 410359i bk1: 25a 410203i bk2: 2a 410389i bk3: 2a 410395i bk4: 0a 410454i bk5: 1a 410440i bk6: 1a 410441i bk7: 1a 410446i bk8: 5a 410287i bk9: 2a 410405i bk10: 3a 410394i bk11: 3a 410366i bk12: 1a 410445i bk13: 4a 410280i bk14: 1a 410441i bk15: 2a 410402i 

------------------------------------------------------------------------

Row_Buffer_Locality = 0.546667
Row_Buffer_Locality_read = 0.546667
Row_Buffer_Locality_write = -nan
Bank_Level_Parallism = 1.221703
Bank_Level_Parallism_Col = 1.121127
Bank_Level_Parallism_Ready = 1.052632
write_to_read_ratio_blp_rw_average = 0.000000
GrpLevelPara = 1.116901 

BW Util details:
bwutil = 0.000731 
total_CMD = 410463 
util_bw = 300 
Wasted_Col = 571 
Wasted_Row = 324 
Idle = 409268 

BW Util Bottlenecks: 
RCDc_limit = 634 
RCDWRc_limit = 0 
WTRc_limit = 0 
RTWc_limit = 0 
CCDLc_limit = 0 
rwq = 0 
CCDLc_limit_alone = 0 
WTRc_limit_alone = 0 
RTWc_limit_alone = 0 

Commands details: 
total_CMD = 410463 
n_nop = 410335 
Read = 75 
Write = 0 
L2_Alloc = 0 
L2_WB = 0 
n_act = 34 
n_pre = 19 
n_ref = 0 
n_req = 75 
total_req = 75 

Dual Bus Interface Util: 
issued_total_row = 53 
issued_total_col = 75 
Row_Bus_Util =  0.000129 
CoL_Bus_Util = 0.000183 
Either_Row_CoL_Bus_Util = 0.000312 
Issued_on_Two_Bus_Simul_Util = 0.000000 
issued_two_Eff = 0.000000 
queue_avg = 0.000826 


dram_util_bins: 0 0 0 0 0 0 0 0 0 0
dram_eff_bins: 0 0 0 0 0 0 0 0 0 0
mrqq: max=4 avg=0.000825897
Memory Partition 13: 
Cache L2_bank_026:
MSHR contents

Cache L2_bank_027:
MSHR contents

In Dram Latency Queue (total = 0): 
DRAM[13]: 16 bks, busW=2 BL=16 CL=20, tRRD=10 tCCD=4, tRCD=20 tRAS=50 tRP=20 tRC=62
n_cmd=410463 n_nop=410322 n_act=38 n_pre=23 n_ref_event=0 n_req=80 n_rd=80 n_rd_L2_A=0 n_write=0 n_wr_bk=0 bw_util=0.0007796
n_activity=2226 dram_eff=0.1438
bk0: 21a 410363i bk1: 23a 410290i bk2: 4a 410319i bk3: 1a 410436i bk4: 1a 410432i bk5: 3a 410360i bk6: 2a 410397i bk7: 2a 410399i bk8: 0a 410465i bk9: 3a 410405i bk10: 2a 410404i bk11: 2a 410403i bk12: 10a 410153i bk13: 1a 410427i bk14: 2a 410400i bk15: 3a 410401i 

------------------------------------------------------------------------

Row_Buffer_Locality = 0.525000
Row_Buffer_Locality_read = 0.525000
Row_Buffer_Locality_write = -nan
Bank_Level_Parallism = 1.256963
Bank_Level_Parallism_Col = 1.144168
Bank_Level_Parallism_Ready = 1.024691
write_to_read_ratio_blp_rw_average = 0.000000
GrpLevelPara = 1.131062 

BW Util details:
bwutil = 0.000780 
total_CMD = 410463 
util_bw = 320 
Wasted_Col = 607 
Wasted_Row = 316 
Idle = 409220 

BW Util Bottlenecks: 
RCDc_limit = 698 
RCDWRc_limit = 0 
WTRc_limit = 0 
RTWc_limit = 0 
CCDLc_limit = 0 
rwq = 0 
CCDLc_limit_alone = 0 
WTRc_limit_alone = 0 
RTWc_limit_alone = 0 

Commands details: 
total_CMD = 410463 
n_nop = 410322 
Read = 80 
Write = 0 
L2_Alloc = 0 
L2_WB = 0 
n_act = 38 
n_pre = 23 
n_ref = 0 
n_req = 80 
total_req = 80 

Dual Bus Interface Util: 
issued_total_row = 61 
issued_total_col = 80 
Row_Bus_Util =  0.000149 
CoL_Bus_Util = 0.000195 
Either_Row_CoL_Bus_Util = 0.000344 
Issued_on_Two_Bus_Simul_Util = 0.000000 
issued_two_Eff = 0.000000 
queue_avg = 0.000675 


dram_util_bins: 0 0 0 0 0 0 0 0 0 0
dram_eff_bins: 0 0 0 0 0 0 0 0 0 0
mrqq: max=6 avg=0.000674848
Memory Partition 14: 
Cache L2_bank_028:
MSHR contents

Cache L2_bank_029:
MSHR contents

In Dram Latency Queue (total = 0): 
DRAM[14]: 16 bks, busW=2 BL=16 CL=20, tRRD=10 tCCD=4, tRCD=20 tRAS=50 tRP=20 tRC=62
n_cmd=410463 n_nop=410323 n_act=38 n_pre=22 n_ref_event=0 n_req=81 n_rd=81 n_rd_L2_A=0 n_write=0 n_wr_bk=0 bw_util=0.0007894
n_activity=2156 dram_eff=0.1503
bk0: 22a 410323i bk1: 24a 410340i bk2: 2a 410368i bk3: 1a 410437i bk4: 2a 410403i bk5: 1a 410446i bk6: 3a 410405i bk7: 4a 410325i bk8: 5a 410259i bk9: 4a 410317i bk10: 3a 410396i bk11: 3a 410362i bk12: 2a 410397i bk13: 2a 410399i bk14: 1a 410440i bk15: 2a 410399i 

------------------------------------------------------------------------

Row_Buffer_Locality = 0.530864
Row_Buffer_Locality_read = 0.530864
Row_Buffer_Locality_write = -nan
Bank_Level_Parallism = 1.237317
Bank_Level_Parallism_Col = 1.137107
Bank_Level_Parallism_Ready = 1.097561
write_to_read_ratio_blp_rw_average = 0.000000
GrpLevelPara = 1.113208 

BW Util details:
bwutil = 0.000789 
total_CMD = 410463 
util_bw = 324 
Wasted_Col = 630 
Wasted_Row = 331 
Idle = 409178 

BW Util Bottlenecks: 
RCDc_limit = 697 
RCDWRc_limit = 0 
WTRc_limit = 0 
RTWc_limit = 0 
CCDLc_limit = 0 
rwq = 0 
CCDLc_limit_alone = 0 
WTRc_limit_alone = 0 
RTWc_limit_alone = 0 

Commands details: 
total_CMD = 410463 
n_nop = 410323 
Read = 81 
Write = 0 
L2_Alloc = 0 
L2_WB = 0 
n_act = 38 
n_pre = 22 
n_ref = 0 
n_req = 81 
total_req = 81 

Dual Bus Interface Util: 
issued_total_row = 60 
issued_total_col = 81 
Row_Bus_Util =  0.000146 
CoL_Bus_Util = 0.000197 
Either_Row_CoL_Bus_Util = 0.000341 
Issued_on_Two_Bus_Simul_Util = 0.000002 
issued_two_Eff = 0.007143 
queue_avg = 0.000638 


dram_util_bins: 0 0 0 0 0 0 0 0 0 0
dram_eff_bins: 0 0 0 0 0 0 0 0 0 0
mrqq: max=3 avg=0.000638304
Memory Partition 15: 
Cache L2_bank_030:
MSHR contents

Cache L2_bank_031:
MSHR contents

In Dram Latency Queue (total = 0): 
DRAM[15]: 16 bks, busW=2 BL=16 CL=20, tRRD=10 tCCD=4, tRCD=20 tRAS=50 tRP=20 tRC=62
n_cmd=410463 n_nop=410337 n_act=32 n_pre=17 n_ref_event=0 n_req=79 n_rd=79 n_rd_L2_A=0 n_write=0 n_wr_bk=0 bw_util=0.0007699
n_activity=1970 dram_eff=0.1604
bk0: 24a 410343i bk1: 25a 410354i bk2: 2a 410394i bk3: 2a 410392i bk4: 3a 410397i bk5: 1a 410444i bk6: 4a 410360i bk7: 2a 410405i bk8: 2a 410385i bk9: 4a 410320i bk10: 1a 410438i bk11: 2a 410437i bk12: 3a 410358i bk13: 2a 410395i bk14: 0a 410459i bk15: 2a 410404i 

------------------------------------------------------------------------

Row_Buffer_Locality = 0.594937
Row_Buffer_Locality_read = 0.594937
Row_Buffer_Locality_write = -nan
Bank_Level_Parallism = 1.208633
Bank_Level_Parallism_Col = 1.071932
Bank_Level_Parallism_Ready = 1.000000
write_to_read_ratio_blp_rw_average = 0.000000
GrpLevelPara = 1.071932 

BW Util details:
bwutil = 0.000770 
total_CMD = 410463 
util_bw = 316 
Wasted_Col = 562 
Wasted_Row = 226 
Idle = 409359 

BW Util Bottlenecks: 
RCDc_limit = 601 
RCDWRc_limit = 0 
WTRc_limit = 0 
RTWc_limit = 0 
CCDLc_limit = 0 
rwq = 0 
CCDLc_limit_alone = 0 
WTRc_limit_alone = 0 
RTWc_limit_alone = 0 

Commands details: 
total_CMD = 410463 
n_nop = 410337 
Read = 79 
Write = 0 
L2_Alloc = 0 
L2_WB = 0 
n_act = 32 
n_pre = 17 
n_ref = 0 
n_req = 79 
total_req = 79 

Dual Bus Interface Util: 
issued_total_row = 49 
issued_total_col = 79 
Row_Bus_Util =  0.000119 
CoL_Bus_Util = 0.000192 
Either_Row_CoL_Bus_Util = 0.000307 
Issued_on_Two_Bus_Simul_Util = 0.000005 
issued_two_Eff = 0.015873 
queue_avg = 0.000538 


dram_util_bins: 0 0 0 0 0 0 0 0 0 0
dram_eff_bins: 0 0 0 0 0 0 0 0 0 0
mrqq: max=3 avg=0.000538416

========= L2 cache stats =========
L2_cache_bank[0]: Access = 2245, Miss = 75, Miss_rate = 0.033, Pending_hits = 8, Reservation_fails = 0
L2_cache_bank[1]: Access = 2252, Miss = 77, Miss_rate = 0.034, Pending_hits = 8, Reservation_fails = 0
L2_cache_bank[2]: Access = 2156, Miss = 80, Miss_rate = 0.037, Pending_hits = 4, Reservation_fails = 0
L2_cache_bank[3]: Access = 2130, Miss = 78, Miss_rate = 0.037, Pending_hits = 4, Reservation_fails = 0
L2_cache_bank[4]: Access = 2158, Miss = 84, Miss_rate = 0.039, Pending_hits = 4, Reservation_fails = 0
L2_cache_bank[5]: Access = 2262, Miss = 85, Miss_rate = 0.038, Pending_hits = 8, Reservation_fails = 0
L2_cache_bank[6]: Access = 2250, Miss = 79, Miss_rate = 0.035, Pending_hits = 8, Reservation_fails = 0
L2_cache_bank[7]: Access = 2282, Miss = 88, Miss_rate = 0.039, Pending_hits = 8, Reservation_fails = 0
L2_cache_bank[8]: Access = 2163, Miss = 73, Miss_rate = 0.034, Pending_hits = 8, Reservation_fails = 0
L2_cache_bank[9]: Access = 2223, Miss = 81, Miss_rate = 0.036, Pending_hits = 8, Reservation_fails = 0
L2_cache_bank[10]: Access = 2209, Miss = 81, Miss_rate = 0.037, Pending_hits = 8, Reservation_fails = 0
L2_cache_bank[11]: Access = 2136, Miss = 80, Miss_rate = 0.037, Pending_hits = 4, Reservation_fails = 0
L2_cache_bank[12]: Access = 2039, Miss = 71, Miss_rate = 0.035, Pending_hits = 4, Reservation_fails = 0
L2_cache_bank[13]: Access = 2047, Miss = 73, Miss_rate = 0.036, Pending_hits = 4, Reservation_fails = 0
L2_cache_bank[14]: Access = 2066, Miss = 76, Miss_rate = 0.037, Pending_hits = 4, Reservation_fails = 0
L2_cache_bank[15]: Access = 2101, Miss = 83, Miss_rate = 0.040, Pending_hits = 4, Reservation_fails = 0
L2_cache_bank[16]: Access = 2098, Miss = 41, Miss_rate = 0.020, Pending_hits = 4, Reservation_fails = 0
L2_cache_bank[17]: Access = 1915, Miss = 39, Miss_rate = 0.020, Pending_hits = 0, Reservation_fails = 0
L2_cache_bank[18]: Access = 1988, Miss = 54, Miss_rate = 0.027, Pending_hits = 0, Reservation_fails = 0
L2_cache_bank[19]: Access = 2098, Miss = 41, Miss_rate = 0.020, Pending_hits = 4, Reservation_fails = 0
L2_cache_bank[20]: Access = 2159, Miss = 45, Miss_rate = 0.021, Pending_hits = 8, Reservation_fails = 0
L2_cache_bank[21]: Access = 1995, Miss = 36, Miss_rate = 0.018, Pending_hits = 4, Reservation_fails = 0
L2_cache_bank[22]: Access = 2180, Miss = 46, Miss_rate = 0.021, Pending_hits = 8, Reservation_fails = 0
L2_cache_bank[23]: Access = 2174, Miss = 49, Miss_rate = 0.023, Pending_hits = 8, Reservation_fails = 0
L2_cache_bank[24]: Access = 1878, Miss = 35, Miss_rate = 0.019, Pending_hits = 0, Reservation_fails = 0
L2_cache_bank[25]: Access = 1923, Miss = 41, Miss_rate = 0.021, Pending_hits = 0, Reservation_fails = 0
L2_cache_bank[26]: Access = 1909, Miss = 43, Miss_rate = 0.023, Pending_hits = 0, Reservation_fails = 0
L2_cache_bank[27]: Access = 1995, Miss = 39, Miss_rate = 0.020, Pending_hits = 0, Reservation_fails = 0
L2_cache_bank[28]: Access = 1922, Miss = 41, Miss_rate = 0.021, Pending_hits = 0, Reservation_fails = 0
L2_cache_bank[29]: Access = 2030, Miss = 41, Miss_rate = 0.020, Pending_hits = 4, Reservation_fails = 0
L2_cache_bank[30]: Access = 2027, Miss = 40, Miss_rate = 0.020, Pending_hits = 4, Reservation_fails = 0
L2_cache_bank[31]: Access = 2044, Miss = 41, Miss_rate = 0.020, Pending_hits = 4, Reservation_fails = 0
L2_total_cache_accesses = 67054
L2_total_cache_misses = 1936
L2_total_cache_miss_rate = 0.0289
L2_total_cache_pending_hits = 144
L2_total_cache_reservation_fails = 0
L2_total_cache_breakdown:
	L2_cache_stats_breakdown[GLOBAL_ACC_R][HIT] = 55757
	L2_cache_stats_breakdown[GLOBAL_ACC_R][HIT_RESERVED] = 0
	L2_cache_stats_breakdown[GLOBAL_ACC_R][MISS] = 731
	L2_cache_stats_breakdown[GLOBAL_ACC_R][RESERVATION_FAIL] = 0
	L2_cache_stats_breakdown[GLOBAL_ACC_R][SECTOR_MISS] = 509
	L2_cache_stats_breakdown[GLOBAL_ACC_R][MSHR_HIT] = 0
	L2_cache_stats_breakdown[LOCAL_ACC_R][HIT] = 0
	L2_cache_stats_breakdown[LOCAL_ACC_R][HIT_RESERVED] = 0
	L2_cache_stats_breakdown[LOCAL_ACC_R][MISS] = 0
	L2_cache_stats_breakdown[LOCAL_ACC_R][RESERVATION_FAIL] = 0
	L2_cache_stats_breakdown[LOCAL_ACC_R][SECTOR_MISS] = 0
	L2_cache_stats_breakdown[LOCAL_ACC_R][MSHR_HIT] = 0
	L2_cache_stats_breakdown[CONST_ACC_R][HIT] = 0
	L2_cache_stats_breakdown[CONST_ACC_R][HIT_RESERVED] = 0
	L2_cache_stats_breakdown[CONST_ACC_R][MISS] = 0
	L2_cache_stats_breakdown[CONST_ACC_R][RESERVATION_FAIL] = 0
	L2_cache_stats_breakdown[CONST_ACC_R][SECTOR_MISS] = 0
	L2_cache_stats_breakdown[CONST_ACC_R][MSHR_HIT] = 0
	L2_cache_stats_breakdown[TEXTURE_ACC_R][HIT] = 0
	L2_cache_stats_breakdown[TEXTURE_ACC_R][HIT_RESERVED] = 0
	L2_cache_stats_breakdown[TEXTURE_ACC_R][MISS] = 0
	L2_cache_stats_breakdown[TEXTURE_ACC_R][RESERVATION_FAIL] = 0
	L2_cache_stats_breakdown[TEXTURE_ACC_R][SECTOR_MISS] = 0
	L2_cache_stats_breakdown[TEXTURE_ACC_R][MSHR_HIT] = 0
	L2_cache_stats_breakdown[GLOBAL_ACC_W][HIT] = 4897
	L2_cache_stats_breakdown[GLOBAL_ACC_W][HIT_RESERVED] = 0
	L2_cache_stats_breakdown[GLOBAL_ACC_W][MISS] = 37
	L2_cache_stats_breakdown[GLOBAL_ACC_W][RESERVATION_FAIL] = 0
	L2_cache_stats_breakdown[GLOBAL_ACC_W][SECTOR_MISS] = 515
	L2_cache_stats_breakdown[GLOBAL_ACC_W][MSHR_HIT] = 0
	L2_cache_stats_breakdown[LOCAL_ACC_W][HIT] = 0
	L2_cache_stats_breakdown[LOCAL_ACC_W][HIT_RESERVED] = 0
	L2_cache_stats_breakdown[LOCAL_ACC_W][MISS] = 0
	L2_cache_stats_breakdown[LOCAL_ACC_W][RESERVATION_FAIL] = 0
	L2_cache_stats_breakdown[LOCAL_ACC_W][SECTOR_MISS] = 0
	L2_cache_stats_breakdown[LOCAL_ACC_W][MSHR_HIT] = 0
	L2_cache_stats_breakdown[L1_WRBK_ACC][HIT] = 0
	L2_cache_stats_breakdown[L1_WRBK_ACC][HIT_RESERVED] = 0
	L2_cache_stats_breakdown[L1_WRBK_ACC][MISS] = 0
	L2_cache_stats_breakdown[L1_WRBK_ACC][RESERVATION_FAIL] = 0
	L2_cache_stats_breakdown[L1_WRBK_ACC][SECTOR_MISS] = 0
	L2_cache_stats_breakdown[L1_WRBK_ACC][MSHR_HIT] = 0
	L2_cache_stats_breakdown[L2_WRBK_ACC][HIT] = 0
	L2_cache_stats_breakdown[L2_WRBK_ACC][HIT_RESERVED] = 0
	L2_cache_stats_breakdown[L2_WRBK_ACC][MISS] = 0
	L2_cache_stats_breakdown[L2_WRBK_ACC][RESERVATION_FAIL] = 0
	L2_cache_stats_breakdown[L2_WRBK_ACC][SECTOR_MISS] = 0
	L2_cache_stats_breakdown[L2_WRBK_ACC][MSHR_HIT] = 0
	L2_cache_stats_breakdown[INST_ACC_R][HIT] = 4320
	L2_cache_stats_breakdown[INST_ACC_R][HIT_RESERVED] = 144
	L2_cache_stats_breakdown[INST_ACC_R][MISS] = 36
	L2_cache_stats_breakdown[INST_ACC_R][RESERVATION_FAIL] = 0
	L2_cache_stats_breakdown[INST_ACC_R][SECTOR_MISS] = 108
	L2_cache_stats_breakdown[INST_ACC_R][MSHR_HIT] = 144
	L2_cache_stats_breakdown[L1_WR_ALLOC_R][HIT] = 0
	L2_cache_stats_breakdown[L1_WR_ALLOC_R][HIT_RESERVED] = 0
	L2_cache_stats_breakdown[L1_WR_ALLOC_R][MISS] = 0
	L2_cache_stats_breakdown[L1_WR_ALLOC_R][RESERVATION_FAIL] = 0
	L2_cache_stats_breakdown[L1_WR_ALLOC_R][SECTOR_MISS] = 0
	L2_cache_stats_breakdown[L1_WR_ALLOC_R][MSHR_HIT] = 0
	L2_cache_stats_breakdown[L2_WR_ALLOC_R][HIT] = 0
	L2_cache_stats_breakdown[L2_WR_ALLOC_R][HIT_RESERVED] = 0
	L2_cache_stats_breakdown[L2_WR_ALLOC_R][MISS] = 0
	L2_cache_stats_breakdown[L2_WR_ALLOC_R][RESERVATION_FAIL] = 0
	L2_cache_stats_breakdown[L2_WR_ALLOC_R][SECTOR_MISS] = 0
	L2_cache_stats_breakdown[L2_WR_ALLOC_R][MSHR_HIT] = 0
	L2_cache_stats_breakdown[GLOBAL_ACC_R][TOTAL_ACCESS] = 56997
	L2_cache_stats_breakdown[GLOBAL_ACC_W][TOTAL_ACCESS] = 5449
	L2_cache_stats_breakdown[INST_ACC_R][TOTAL_ACCESS] = 4752
L2_total_cache_reservation_fail_breakdown:
L2_cache_data_port_util = 0.009
L2_cache_fill_port_util = 0.000

icnt_total_pkts_mem_to_simt=67054
icnt_total_pkts_simt_to_mem=63598
LD_mem_lat_dist  0 0 0 0 0 0 0 0 0 0 0 0 0 0 0 0 0 0 0 0 0 0 0 0 0 0 0
ST_mem_lat_dist  0 0 0 0 0 0 0 0 0 0 0 0 0 0 0 0 0 0 0 0 0 0 0 0 0 0 0
----------------------------Interconnect-DETAILS--------------------------------
Req_Network_injected_packets_num = 63598
Req_Network_cycles = 223410
Req_Network_injected_packets_per_cycle =       0.2847 
Req_Network_conflicts_per_cycle =       0.0010
Req_Network_conflicts_per_cycle_util =       0.0058
Req_Bank_Level_Parallism =       1.6283
Req_Network_in_buffer_full_per_cycle =       0.0000
Req_Network_in_buffer_avg_util =       0.0006
Req_Network_out_buffer_full_per_cycle =       0.0000
Req_Network_out_buffer_avg_util =       0.0089

Reply_Network_injected_packets_num = 67054
Reply_Network_cycles = 223410
Reply_Network_injected_packets_per_cycle =        0.3001
Reply_Network_conflicts_per_cycle =        0.4836
Reply_Network_conflicts_per_cycle_util =       2.5476
Reply_Bank_Level_Parallism =       1.5812
Reply_Network_in_buffer_full_per_cycle =       0.0000
Reply_Network_in_buffer_avg_util =       0.0189
Reply_Network_out_buffer_full_per_cycle =       0.0000
Reply_Network_out_buffer_avg_util =       0.0088
----------------------------END-of-Interconnect-DETAILS-------------------------


gpgpu_simulation_time = 0 days, 0 hrs, 1 min, 11 sec (71 sec)
gpgpu_simulation_rate = 34883 (inst/sec)
gpgpu_simulation_rate = 3146 (cycle/sec)
gpgpu_silicon_slowdown = 605530x
launching memcpy command : MemcpyHtoD,0x00007febe3707000,4096
launching memcpy command : MemcpyHtoD,0x00007febe3708400,32768
Processing kernel ../../../../hw_run/rodinia_2.0-ft/11.0/streamcluster-rodinia-2.0-ft/3_6_16_1024_1024_100_none_output_txt_1___data_result_3_6_16_1024_1024_100_none_1_txt/traces/kernel-17.traceg
-kernel name = _Z12pgain_kerneliilP5PointiPfS1_PiPb
-kernel id = 17
-grid dim = (2,1,1)
-block dim = (512,1,1)
-shmem = 64
-nregs = 32
-binary version = 70
-cuda stream id = 0
-shmem base_addr = 0x00007fec18000000
-local mem base_addr = 0x00007fec1a000000
-nvbit version = 1.4
-accelsim tracer version = 3
launching kernel command : ../../../../hw_run/rodinia_2.0-ft/11.0/streamcluster-rodinia-2.0-ft/3_6_16_1024_1024_100_none_output_txt_1___data_result_3_6_16_1024_1024_100_none_1_txt/traces/kernel-17.traceg
GPGPU-Sim uArch: Shader 32 bind to kernel 17 '_Z12pgain_kerneliilP5PointiPfS1_PiPb'
thread block = 0,0,0
GPGPU-Sim uArch: Shader 33 bind to kernel 17 '_Z12pgain_kerneliilP5PointiPfS1_PiPb'
thread block = 1,0,0
